*HEADING
Balanced local boot/yoke contact with both actual cropped parts deformable.
*NODE,NSET=BOOT
1,-36.0,-12.5,-14.6
2,-36.0,-16.5,-14.6
3,-32.0,-12.5,-14.6
4,-32.0,-16.5,-14.6
5,-32.85,-14.5,-14.6
6,-37.0,-10.5,-15.8
7,-37.8,-10.5,-15.8
8,-37.8,-18.0,-15.8
9,-30.0,-18.0,-15.8
10,-30.0,-16.0,-15.8
11,-30.5,-16.0,-15.8
12,-30.5,-12.0,-15.8
13,-31.5,-11.0,-15.8
14,-36.5,-11.0,-15.8
15,-37.0,-11.13397459621,-15.8
16,-31.0,-14.5,-15.8
17,-38.0,-10.5,-15.78321595662
18,-38.0,-10.5,-12.8
19,-37.0,-10.5,-12.8
20,-37.0,-11.13397459621,-12.8
** ... 2191 like lines cut
*ELEMENT,TYPE=C3D4,ELSET=BOOT
1,485,1784,43,1960
2,819,1829,646,1861
3,1323,1946,1437,1954
4,1823,1855,885,2108
5,872,1901,1877,1924
6,872,869,1901,1924
7,1318,1398,1774,2007
8,752,1828,1996,2038
9,1154,1866,1785,1915
10,594,1999,1818,2032
11,1865,1877,872,1901
12,184,2036,1887,2079
13,799,778,795,1893
14,1576,1793,1837,2085
15,1303,1302,1301,2057
16,472,1244,1494,1507
17,1887,2012,1813,2211
18,200,1826,821,2054
19,1576,1837,1793,1923
20,1318,1774,1398,1946
** ... 7762 like lines cut
*SURFACE,NAME=BOOT_CONTACT,TYPE=ELEMENT
2461,S2
2553,S3
7239,S4
6615,S4
6048,S2
5089,S1
3644,S1
7247,S4
3503,S1
7205,S4
7717,S2
3784,S4
7284,S3
3487,S1
7007,S2
7043,S2
2116,S2
7160,S2
2781,S4
7296,S4
** ... 460 like lines cut
*NODE,NSET=YOKE
2212,-31.0,-14.5,-16.0
2213,-32.85,-14.5,-16.0
2214,-32.1,-14.5,-19.0
2215,-32.85,-14.5,-19.0
2216,-38.0,-17.2360679775,-16.0
2217,-38.0,-10.5,-16.0
2218,-36.0,-18.0,-16.0
2219,-30.0,-10.5,-16.0
2220,-30.0,-18.0,-16.0
2221,-38.0,-17.2360679775,-19.0
2222,-38.0,-10.5,-19.0
2223,-30.0,-10.5,-19.0
2224,-30.0,-18.0,-19.0
2225,-36.0,-18.0,-19.0
2226,-31.04091608979183,-14.0062162291578,-16.0
2227,-31.1625482748981,-13.52590159238595,-16.0
2228,-31.36157874638053,-13.07215782088878,-16.0
2229,-31.63257847181082,-12.65736186193099,-16.0
2230,-31.96815528512278,-12.2928282679806,-16.0
2231,-32.35915552563272,-11.98850056521241,-16.0
** ... 2609 like lines cut
*ELEMENT,TYPE=C3D4,ELSET=YOKE
7783,2787,3132,4187,4232
7784,3983,3875,4049,4504
7785,3741,4466,4062,4586
7786,3981,4354,4247,4445
7787,3944,4063,4135,4312
7788,3297,4033,4062,4156
7789,3004,4203,4110,4375
7790,3906,4005,4070,4181
7791,3322,3321,4263,4277
7792,2488,3999,4095,4500
7793,3905,3970,4142,4244
7794,4071,4194,2950,4285
7795,3892,4036,4174,4538
7796,3145,4096,4187,4232
7797,3941,4062,4033,4156
7798,3892,4036,3974,4174
7799,3912,4260,4189,4336
7800,3975,3595,4138,4494
7801,3373,3976,3371,4412
7802,3350,3525,4065,4746
** ... 10815 like lines cut
*SURFACE,NAME=YOKE_CONTACT,TYPE=ELEMENT
17899,S1
17707,S1
17468,S1
18100,S1
17443,S1
16241,S1
17007,S1
16133,S1
15850,S1
15868,S1
13225,S1
14291,S1
13176,S1
15289,S1
17549,S1
17820,S1
16599,S1
15392,S1
16052,S1
17412,S1
** ... 454 like lines cut
*MATERIAL,NAME=BOOT
*ELASTIC
1120,.35
*SOLID SECTION,ELSET=BOOT,MATERIAL=BOOT
*MATERIAL,NAME=YOKE
*ELASTIC
1120,.35
*SOLID SECTION,ELSET=YOKE,MATERIAL=YOKE
*NSET,NSET=ANCHORS
29,9,2491,2224,2222
*SURFACE INTERACTION,NAME=NORMAL
*SURFACE BEHAVIOR,PRESSURE-OVERCLOSURE=LINEAR
1000000
*CONTACT PAIR,INTERACTION=NORMAL,TYPE=SURFACE TO SURFACE
BOOT_CONTACT,YOKE_CONTACT
*BOUNDARY
29,1,2,0
9,2,2,0
2491,1,3,0
2224,2,3,0
2222,3,3,0
*STEP,NLGEOM,INC=100
*STATIC
.1,1,1e-6,.1
*CLOAD
1,3,-0.108576688069823
2,3,-0.108588384353825
3,3,-0.106613117233612
4,3,-0.107228328301477
5,3,-0.0455714145244586
47,3,-0.115444905655342
48,3,-0.109380475922128
49,3,-0.187736747790289
50,3,-0.175728721897768
51,3,-0.126422168927218
52,3,-0.180682986294337
53,3,-0.179839052498285
54,3,-0.112694120358462
55,3,-0.107659590722409
56,3,-0.184393847498937
57,3,-0.172773802430886
58,3,-0.114937580824322
59,3,-0.177996196184606
60,3,-0.179840893889593
61,3,-0.10802329608043
** ... 284 like lines cut
*NODE PRINT,NSET=ANCHORS,TOTALS=ONLY
RF
*NODE PRINT,NSET=BOOT
U
*NODE PRINT,NSET=YOKE
U
*CONTACT PRINT,SLAVE=BOOT_CONTACT,MASTER=YOKE_CONTACT
CF,CDIS,CSTR
*END STEP
