*HEADING
Contact compliance and release benchmark
*NODE,NSET=ALL
1,0.0,0.0,0
2,2.5,0.0,0
3,5.0,0.0,0
4,7.5,0.0,0
5,10.0,0.0,0
6,0.0,2.5,0
7,2.5,2.5,0
8,5.0,2.5,0
9,7.5,2.5,0
10,10.0,2.5,0
11,0.0,5.0,0
12,2.5,5.0,0
13,5.0,5.0,0
14,7.5,5.0,0
15,10.0,5.0,0
16,0.0,7.5,0
17,2.5,7.5,0
18,5.0,7.5,0
19,7.5,7.5,0
20,10.0,7.5,0
** ... 80 like lines cut
*ELEMENT,TYPE=C3D8,ELSET=LOWER
1,1,2,7,6,26,27,32,31
2,2,3,8,7,27,28,33,32
3,3,4,9,8,28,29,34,33
4,4,5,10,9,29,30,35,34
5,6,7,12,11,31,32,37,36
6,7,8,13,12,32,33,38,37
7,8,9,14,13,33,34,39,38
8,9,10,15,14,34,35,40,39
9,11,12,17,16,36,37,42,41
10,12,13,18,17,37,38,43,42
11,13,14,19,18,38,39,44,43
12,14,15,20,19,39,40,45,44
13,16,17,22,21,41,42,47,46
14,17,18,23,22,42,43,48,47
15,18,19,24,23,43,44,49,48
16,19,20,25,24,44,45,50,49
*ELEMENT,TYPE=C3D8,ELSET=UPPER
17,51,52,57,56,76,77,82,81
18,52,53,58,57,77,78,83,82
19,53,54,59,58,78,79,84,83
20,54,55,60,59,79,80,85,84
21,56,57,62,61,81,82,87,86
22,57,58,63,62,82,83,88,87
23,58,59,64,63,83,84,89,88
24,59,60,65,64,84,85,90,89
25,61,62,67,66,86,87,92,91
26,62,63,68,67,87,88,93,92
27,63,64,69,68,88,89,94,93
28,64,65,70,69,89,90,95,94
29,66,67,72,71,91,92,97,96
30,67,68,73,72,92,93,98,97
31,68,69,74,73,93,94,99,98
32,69,70,75,74,94,95,100,99
*NSET,NSET=BOTTOM
1,2,3,4,5,6,7,8,9,10,11,12
13,14,15,16,17,18,19,20,21,22,23,24
25
*NSET,NSET=TOP
76,77,78,79,80,81,82,83,84,85,86,87
88,89,90,91,92,93,94,95,96,97,98,99
100
*MATERIAL,NAME=LOWER
*ELASTIC
1120,0
*SOLID SECTION,ELSET=LOWER,MATERIAL=LOWER
*MATERIAL,NAME=UPPER
*ELASTIC
68300,0
*SOLID SECTION,ELSET=UPPER,MATERIAL=UPPER
*SURFACE,NAME=MASTER,TYPE=ELEMENT
LOWER,S2
*SURFACE,NAME=SLAVE,TYPE=ELEMENT
UPPER,S1
*SURFACE INTERACTION,NAME=CONTACT
*SURFACE BEHAVIOR,PRESSURE-OVERCLOSURE=LINEAR
10000.0
*CONTACT PAIR,INTERACTION=CONTACT,TYPE=SURFACE TO SURFACE
SLAVE,MASTER
*BOUNDARY
ALL,1,2,0
BOTTOM,3,3,0
*STEP,NLGEOM,INC=100
*STATIC
.1,1,1e-7,.1
*BOUNDARY
TOP,3,3,-0.01
*NODE PRINT,NSET=BOTTOM,TOTALS=ONLY
RF
*NODE PRINT,NSET=TOP,TOTALS=ONLY
RF
*CONTACT PRINT,SLAVE=SLAVE,MASTER=MASTER
CF,CDIS,CSTR
*END STEP
*STEP,NLGEOM,INC=100
*STATIC
.1,1,1e-7,.1
*BOUNDARY
TOP,3,3,0.01
*NODE PRINT,NSET=BOTTOM,TOTALS=ONLY
RF
*NODE PRINT,NSET=TOP,TOTALS=ONLY
RF
*CONTACT PRINT,SLAVE=SLAVE,MASTER=MASTER
CF,CDIS,CSTR
*END STEP
