*HEADING
Balanced local boot/yoke contact with both actual cropped parts deformable.
*NODE,NSET=BOOT
1,-36.0,-12.5,-14.6
2,-36.0,-16.5,-14.6
3,-32.0,-12.5,-14.6
4,-32.0,-16.5,-14.6
5,-32.85,-14.5,-14.6
6,-37.0,-10.5,-15.8
7,-37.8,-10.5,-15.8
8,-37.8,-18.0,-15.8
9,-30.0,-18.0,-15.8
10,-30.0,-16.0,-15.8
11,-30.5,-16.0,-15.8
12,-30.5,-12.0,-15.8
13,-31.5,-11.0,-15.8
14,-36.5,-11.0,-15.8
15,-37.0,-11.13397459621,-15.8
16,-31.0,-14.5,-15.8
17,-38.0,-10.5,-15.78321595662
18,-38.0,-10.5,-12.8
19,-37.0,-10.5,-12.8
20,-37.0,-11.13397459621,-12.8
** ... 4482 like lines cut
*ELEMENT,TYPE=C3D4,ELSET=BOOT
1,3313,3320,3127,3668
2,1794,3533,1890,3705
3,3121,3325,3130,3616
4,3217,3437,674,3753
5,3195,3460,2798,3604
6,3130,3325,3121,3524
7,3454,3645,3102,4204
8,3145,3799,3268,3858
9,3475,3651,3148,3768
10,3045,3291,3258,3422
11,2941,3792,3041,3937
12,2401,3481,3339,3860
13,3095,3651,3475,3768
14,2074,3726,3341,4228
15,3145,3268,3659,3858
16,3475,3651,3095,3723
17,1006,3389,876,3538
18,2074,3593,3726,4228
19,652,2710,3467,4007
20,1066,1054,1075,3718
** ... 17912 like lines cut
*SURFACE,NAME=BOOT_CONTACT,TYPE=ELEMENT
14998,S1
15293,S3
16450,S2
16976,S4
16977,S4
17829,S2
15595,S1
16807,S2
15196,S4
16952,S2
14937,S3
16432,S4
14960,S1
16399,S3
15038,S1
16641,S4
15511,S1
16506,S2
14740,S4
16352,S4
** ... 684 like lines cut
*NODE,NSET=YOKE
4503,-31.0,-14.5,-16.0
4504,-32.85,-14.5,-16.0
4505,-32.1,-14.5,-19.0
4506,-32.85,-14.5,-19.0
4507,-38.0,-17.2360679775,-16.0
4508,-38.0,-10.5,-16.0
4509,-36.0,-18.0,-16.0
4510,-30.0,-10.5,-16.0
4511,-30.0,-18.0,-16.0
4512,-38.0,-17.2360679775,-19.0
4513,-38.0,-10.5,-19.0
4514,-30.0,-10.5,-19.0
4515,-30.0,-18.0,-19.0
4516,-36.0,-18.0,-19.0
4517,-31.02028492677417,-14.15172125762431,-16.0
4518,-31.08086538826053,-13.80815238777268,-16.0
4519,-31.18092213764227,-13.473939570023,-16.0
4520,-31.31910207902976,-13.15360245939862,-16.0
4521,-31.49353656576119,-12.85147306578758,-16.0
4522,-31.70186667064306,-12.57163717094038,-16.0
** ... 5069 like lines cut
*ELEMENT,TYPE=C3D4,ELSET=YOKE
17933,7714,8533,7419,9195
17934,7211,7595,7930,8624
17935,7584,8709,6093,8849
17936,6109,7576,6234,8767
17937,7843,9006,8071,9292
17938,6884,7902,7912,8611
17939,7218,7605,7505,8100
17940,6225,8176,7623,8767
17941,6269,7844,6125,7929
17942,5879,8182,7970,8613
17943,6353,6648,6606,7807
17944,7447,8573,7609,8835
17945,5750,8278,7835,8668
17946,7200,7444,7809,8153
17947,5173,8289,7591,8672
17948,7280,7843,8071,9292
17949,7789,8148,7420,8913
17950,6462,6594,7485,8546
17951,7843,7566,9006,9292
17952,7717,8279,8086,8644
** ... 22842 like lines cut
*SURFACE,NAME=YOKE_CONTACT,TYPE=ELEMENT
31075,S1
38687,S1
38221,S1
39662,S1
39694,S1
37236,S1
39376,S1
38786,S1
38192,S1
35479,S1
31375,S1
38285,S1
38995,S1
38445,S1
38474,S1
38007,S1
34893,S1
38617,S1
35434,S1
27767,S1
** ... 676 like lines cut
*MATERIAL,NAME=BOOT
*ELASTIC
1120,.35
*SOLID SECTION,ELSET=BOOT,MATERIAL=BOOT
*MATERIAL,NAME=YOKE
*ELASTIC
1120,.35
*SOLID SECTION,ELSET=YOKE,MATERIAL=YOKE
*NSET,NSET=ANCHORS
29,9,4871,4515,4513
*SURFACE INTERACTION,NAME=NORMAL
*SURFACE BEHAVIOR,PRESSURE-OVERCLOSURE=LINEAR
1000000
*CONTACT PAIR,INTERACTION=NORMAL,TYPE=SURFACE TO SURFACE
BOOT_CONTACT,YOKE_CONTACT
*BOUNDARY
29,1,2,0
9,2,2,0
4871,1,3,0
4515,2,3,0
4513,3,3,0
*STEP,NLGEOM,INC=100
*STATIC
.1,1,1e-6,.1
*CLOAD
1,3,-0.0415728482674509
2,3,-0.0467799564060889
3,3,-0.0402162957038326
4,3,-0.0467799564060881
5,3,-0.0394632670135457
47,3,-0.0641914318029602
48,3,-0.081131412899328
49,3,-0.0818416819165466
50,3,-0.0755725024291786
51,3,-0.072684787365429
52,3,-0.0758335660944172
53,3,-0.0627832049571676
54,3,-0.0841804778118713
55,3,-0.0757135503932812
56,3,-0.0717442362974748
57,3,-0.0647823050850591
58,3,-0.0625760391378522
59,3,-0.0824844522178392
60,3,-0.0818229510226811
61,3,-0.0813530391685445
** ... 342 like lines cut
*NODE PRINT,NSET=ANCHORS,TOTALS=ONLY
RF
*NODE PRINT,NSET=BOOT
U
*NODE PRINT,NSET=YOKE
U
*CONTACT PRINT,SLAVE=BOOT_CONTACT,MASTER=YOKE_CONTACT
CF,CDIS,CSTR
*END STEP
