*HEADING
Balanced washer-pressure contact probe on current body and plate, not screw qualification.
*NODE,NSET=body
1,64,-64,0.65
2,64,-64,47.6
3,-62.2,-64,0.65
4,-62.2,-64,127.35
5,51.6,-64,127.35
6,51.6,-64,47.6
7,29,-64,61.9
8,29,-62.2,61.9
9,62.2,-62.2,1.8
10,62.2,-62.2,47.6
11,-62.2,-62.2,1.8
12,-62.2,-62.2,4.69545767163
13,-56.2,-62.2,4.69545767163
14,-56.2,-62.2,11.3045423284
15,-62.2,-62.2,11.3045423284
16,-62.2,-62.2,49.8
17,-59.2,-62.2,49.8
18,-59.2,-62.2,52.2
19,-62.2,-62.2,52.2
20,-62.2,-62.2,116.695457672
** ... 20240 like lines cut
*ELEMENT,TYPE=C3D4,ELSET=body
1,29,758,7660,4961
2,3733,16979,3795,3803
3,3409,3379,3408,17461
4,2713,2682,2712,20226
5,2713,2714,2683,20226
6,16856,2713,2712,20226
7,3774,3732,2329,3808
8,255,3245,17212,17295
9,2713,16856,2714,20226
10,2164,2327,2297,2328
11,3880,331,2951,20246
12,3698,3016,3777,20254
13,17415,3398,3399,20228
14,3870,3392,3391,20227
15,3867,3392,3870,20227
16,2709,16837,2708,20232
17,17461,3408,3409,17433
18,16982,3698,3777,20254
19,3775,2721,3783,3728
20,3744,2329,3732,3808
** ... 58101 like lines cut
*SURFACE,NAME=body__body_plate,TYPE=ELEMENT
15801,S1
47048,S1
49525,S2
48815,S2
48816,S2
13044,S1
49098,S1
49121,S2
57351,S2
57340,S4
49186,S1
47081,S1
45574,S3
32589,S1
311,S1
12460,S4
851,S3
41181,S1
47883,S2
613,S3
** ... 996 like lines cut
*SURFACE,NAME=body__body_washer_0,TYPE=ELEMENT
2084,S1
246,S1
54692,S1
57317,S4
43952,S1
4173,S1
41408,S1
11283,S1
56383,S4
53766,S1
24,S1
14,S1
55989,S3
15,S1
52880,S4
999,S1
54369,S4
54147,S4
1192,S1
502,S1
** ... 72 like lines cut
*SURFACE,NAME=body__body_washer_1,TYPE=ELEMENT
247,S1
11,S1
57507,S2
51262,S1
558,S1
1032,S1
9184,S1
56492,S3
53691,S1
53170,S3
54195,S1
49182,S1
52658,S1
58055,S3
57973,S3
36844,S1
44824,S1
53217,S1
51143,S1
57639,S2
** ... 72 like lines cut
*SURFACE,NAME=body__body_washer_2,TYPE=ELEMENT
17930,S1
2994,S1
54600,S1
54276,S1
51513,S1
538,S1
471,S1
597,S1
56294,S2
53767,S1
250,S1
179,S1
55991,S3
194,S1
52881,S4
1000,S1
54370,S4
54148,S4
1191,S1
11434,S1
** ... 74 like lines cut
*SURFACE,NAME=body__body_washer_3,TYPE=ELEMENT
146,S1
57863,S3
57445,S2
51263,S2
277,S1
432,S1
815,S1
460,S1
56215,S2
57981,S3
57940,S2
191,S1
56247,S3
56300,S3
57346,S3
18921,S1
546,S1
4116,S1
57532,S4
53124,S1
** ... 72 like lines cut
*NODE,NSET=rear_plate
20261,-64.2,-64,0.65
20262,-62.2,-64,0.65
20263,-62.2,-64,127.35
20264,-64.2,-64,127.35
20265,-64.2,-63.35,0
20266,-64.2,-63.35,128
20267,-64.2,63.35,0
20268,-64.2,63.35,128
20269,-64.2,64,0.65
20270,-64.2,64,127.35
20271,-64.2,57,123.5
20272,-64.2,33,83.7
20273,-64.2,19,83.7
20274,-64.2,33,59.7
20275,-64.2,57,11.5
20276,-64.2,19,59.7
20277,-64.2,-16,113.9
20278,-64.2,-15,112.9
20279,-64.2,-16,114.1
20280,-64.2,15,112.9
** ... 6795 like lines cut
*ELEMENT,TYPE=C3D4,ELSET=rear_plate
58122,25903,20284,24847,22634
58123,20313,20312,24756,22287
58124,22287,20312,24756,22427
58125,20972,20973,22417,22309
58126,22099,20618,20617,22340
58127,22251,24761,22425,24748
58128,24953,24947,24942,22272
58129,22445,20616,20617,22340
58130,22290,20345,24951,22456
58131,26598,27038,24818,25854
58132,20972,20973,22309,22319
58133,25903,20284,20335,24847
58134,25903,20282,24849,20336
58135,20973,20974,22417,22309
58136,24761,24757,22425,24748
58137,22456,20645,20271,22320
58138,26468,24704,24708,26776
58139,20617,20618,22445,22340
58140,20616,22445,24951,22282
58141,24761,20995,24753,22255
** ... 18421 like lines cut
*SURFACE,NAME=rear_plate__body_plate,TYPE=ELEMENT
74498,S1
74121,S3
62756,S1
75936,S2
74510,S1
76336,S4
62758,S1
72902,S2
72904,S2
76338,S2
73968,S2
60134,S4
68333,S4
74612,S2
75035,S1
75017,S1
74175,S1
74242,S2
75230,S4
62754,S3
** ... 988 like lines cut
*SURFACE,NAME=rear_plate__washer_plate_0,TYPE=ELEMENT
58414,S1
58362,S1
58440,S1
75236,S1
74692,S2
75664,S4
58234,S1
58850,S2
58181,S1
58378,S1
58256,S1
75344,S4
58462,S1
75382,S4
75479,S3
75481,S3
75477,S3
58580,S1
58262,S1
58407,S1
** ... 74 like lines cut
*SURFACE,NAME=rear_plate__washer_plate_1,TYPE=ELEMENT
58571,S2
58516,S1
58470,S1
74200,S1
75297,S3
73992,S1
58446,S1
58157,S1
58552,S1
58125,S1
58135,S1
58209,S1
58283,S1
58294,S1
75401,S3
58720,S2
58452,S2
75399,S3
58393,S2
58456,S2
** ... 72 like lines cut
*SURFACE,NAME=rear_plate__washer_plate_2,TYPE=ELEMENT
58863,S1
74183,S1
73578,S1
75148,S4
70937,S1
75476,S4
58302,S1
58512,S1
58737,S2
58539,S1
58550,S1
58708,S1
58445,S1
58646,S1
58522,S2
58449,S1
75284,S4
58267,S1
75310,S3
58345,S1
** ... 74 like lines cut
*SURFACE,NAME=rear_plate__washer_plate_3,TYPE=ELEMENT
58239,S1
58137,S1
73984,S1
73035,S1
76471,S4
76475,S4
76477,S4
58129,S1
76473,S3
58139,S1
58149,S1
58219,S1
58166,S1
58333,S1
58559,S1
60621,S2
59139,S1
75295,S4
76484,S4
58435,S1
** ... 72 like lines cut
*MATERIAL,NAME=body
*ELASTIC
1120,0.35
*SOLID SECTION,ELSET=body,MATERIAL=body
*MATERIAL,NAME=rear_plate
*ELASTIC
68300,0.33
*SOLID SECTION,ELSET=rear_plate,MATERIAL=rear_plate
*NSET,NSET=ANCHORS
1747,3679,3686,20464,20562
*SURFACE INTERACTION,NAME=NORMAL
*SURFACE BEHAVIOR,PRESSURE-OVERCLOSURE=LINEAR
100000.0
*CONTACT PAIR,INTERACTION=NORMAL,TYPE=SURFACE TO SURFACE
rear_plate__body_plate,body__body_plate
*BOUNDARY
3686,1,3,0
1747,1,1,0
1747,3,3,0
3679,1,1,0
20464,2,3,0
20562,3,3,0
*STEP,NLGEOM,INC=200
*STATIC
.05,1,1e-6,.1
*CLOAD
225,1,-0.248150193195347
226,1,-0.0477680820119965
295,1,-0.166223404255317
296,1,-0.174712974699624
331,1,-0.248150193195347
332,1,-0.0477680820119965
369,1,-0.166223404255317
370,1,-0.174712974699624
2298,1,-0.38542970971159
2299,1,-0.168706855605902
2300,1,-0.168842485474182
2301,1,-0.40237710871393
2302,1,-0.263173106160456
2303,1,-0.425247495627259
2304,1,-0.342403667689153
2305,1,-0.166223404255323
2306,1,-0.166223404255324
2307,1,-0.385017152417491
2308,1,-0.248150193195342
2309,1,-0.592351004402293
** ... 607 like lines cut
*NODE PRINT,NSET=ANCHORS
RF
*NODE PRINT,NSET=ANCHORS,TOTALS=ONLY
RF
*NODE FILE
U
*EL FILE
S
*CONTACT PRINT,SLAVE=rear_plate__body_plate,MASTER=body__body_plate
CF,CDIS,CSTR
*END STEP
