*HEADING
Unilateral local boot-seat contact probe against an ideal fixed support block.
*NODE,NSET=SEAT
1,-36.0,-12.5,-14.6
2,-36.0,-16.5,-14.6
3,-32.0,-12.5,-14.6
4,-32.0,-16.5,-14.6
5,-32.85,-14.5,-14.6
6,-37.0,-10.5,-15.8
7,-37.8,-10.5,-15.8
8,-37.8,-18.0,-15.8
9,-30.0,-18.0,-15.8
10,-30.0,-16.0,-15.8
11,-30.5,-16.0,-15.8
12,-30.5,-12.0,-15.8
13,-31.5,-11.0,-15.8
14,-36.5,-11.0,-15.8
15,-37.0,-11.13397459621,-15.8
16,-31.0,-14.5,-15.8
17,-38.0,-10.5,-15.78321595662
18,-38.0,-10.5,-12.8
19,-37.0,-10.5,-12.8
20,-37.0,-11.13397459621,-12.8
** ... 1040 like lines cut
*ELEMENT,TYPE=C3D4,ELSET=SEAT
1,375,43,406,141
2,882,821,880,973
3,610,942,936,958
4,857,855,838,963
5,819,820,821,1031
6,616,688,710,930
7,932,971,709,1030
8,340,945,948,989
9,142,141,406,971
10,716,610,942,977
11,616,930,710,966
12,422,128,127,982
13,915,562,631,632
14,714,630,655,1060
15,133,405,993,1036
16,716,665,610,977
17,703,635,634,944
18,375,43,373,1003
19,821,882,819,991
20,663,590,697,979
** ... 3354 like lines cut
*NODE,NSET=SUPPORT
1061,-39,-19.5,-17
1062,-29,-19.5,-17
1063,-29,-9.5,-17
1064,-39,-9.5,-17
1065,-39,-19.5,-16
1066,-29,-19.5,-16
1067,-29,-9.5,-16
1068,-39,-9.5,-16
*ELEMENT,TYPE=C3D8,ELSET=SUPPORT
3375,1061,1062,1063,1064,1065,1066,1067,1068
*MATERIAL,NAME=SEAT
*ELASTIC
1120,.35
*SOLID SECTION,ELSET=SEAT,MATERIAL=SEAT
*MATERIAL,NAME=SUPPORT
*ELASTIC
1120,.35
*SOLID SECTION,ELSET=SUPPORT,MATERIAL=SUPPORT
*SURFACE,NAME=SLAVE,TYPE=ELEMENT
2915,S3
2765,S4
2948,S4
3086,S4
2902,S2
1669,S1
3038,S3
2727,S3
3040,S3
3058,S4
2749,S3
2929,S1
2763,S4
2817,S1
3025,S2
2796,S3
3055,S3
3069,S4
2802,S3
2788,S4
** ... 368 like lines cut
*SURFACE,NAME=MASTER,TYPE=ELEMENT
SUPPORT,S2
*SURFACE INTERACTION,NAME=NORMAL
*SURFACE BEHAVIOR,PRESSURE-OVERCLOSURE=LINEAR
100000.0
*CONTACT PAIR,INTERACTION=NORMAL,TYPE=SURFACE TO SURFACE
SLAVE,MASTER
*NSET,NSET=ANCHORS
214,35
*BOUNDARY
SUPPORT,1,3,0
214,1,2,0
35,2,2,0
*STEP,NLGEOM,INC=100
*STATIC
.1,1,1e-6,.1
*CLOAD
47,3,-0.455743739560817
345,3,-0.746834022911584
1,3,-0.372519645163933
52,3,-0.392192320493975
2,3,-0.372656376675442
339,3,-0.747290897201463
49,3,-0.392302997212333
56,3,-0.46009392771917
50,3,-0.455743739560817
348,3,-0.746834022911587
3,3,-0.372519645163932
55,3,-0.392192320493974
53,3,-0.455743739560819
342,3,-0.743071761856257
4,3,-0.372519645163933
58,3,-0.378000890924663
5,3,-0.0668992705464205
332,3,-0.297787306097714
59,3,-0.0319988219906903
89,3,-0.0580357762244322
** ... 68 like lines cut
*NODE PRINT,NSET=SUPPORT,TOTALS=ONLY
RF
*NODE PRINT,NSET=ANCHORS,TOTALS=ONLY
RF
*NODE PRINT,NSET=SEAT
U
*CONTACT PRINT,SLAVE=SLAVE,MASTER=MASTER
CF,CDIS,CSTR
*END STEP
