*HEADING
Unilateral local boot-seat contact probe against an ideal fixed support block.
*NODE,NSET=SEAT
1,-36.0,-12.5,-14.6
2,-36.0,-16.5,-14.6
3,-32.0,-12.5,-14.6
4,-32.0,-16.5,-14.6
5,-32.85,-14.5,-14.6
6,-37.0,-10.5,-15.8
7,-37.8,-10.5,-15.8
8,-37.8,-18.0,-15.8
9,-30.0,-18.0,-15.8
10,-30.0,-16.0,-15.8
11,-30.5,-16.0,-15.8
12,-30.5,-12.0,-15.8
13,-31.5,-11.0,-15.8
14,-36.5,-11.0,-15.8
15,-37.0,-11.13397459621,-15.8
16,-31.0,-14.5,-15.8
17,-38.0,-10.5,-15.78321595662
18,-38.0,-10.5,-12.8
19,-37.0,-10.5,-12.8
20,-37.0,-11.13397459621,-12.8
** ... 2191 like lines cut
*ELEMENT,TYPE=C3D4,ELSET=SEAT
1,485,1784,43,1960
2,819,1829,646,1861
3,1323,1946,1437,1954
4,1823,1855,885,2108
5,872,1901,1877,1924
6,872,869,1901,1924
7,1318,1398,1774,2007
8,752,1828,1996,2038
9,1154,1866,1785,1915
10,594,1999,1818,2032
11,1865,1877,872,1901
12,184,2036,1887,2079
13,799,778,795,1893
14,1576,1793,1837,2085
15,1303,1302,1301,2057
16,472,1244,1494,1507
17,1887,2012,1813,2211
18,200,1826,821,2054
19,1576,1837,1793,1923
20,1318,1774,1398,1946
** ... 7762 like lines cut
*NODE,NSET=SUPPORT
2212,-39,-19.5,-17
2213,-29,-19.5,-17
2214,-29,-9.5,-17
2215,-39,-9.5,-17
2216,-39,-19.5,-16
2217,-29,-19.5,-16
2218,-29,-9.5,-16
2219,-39,-9.5,-16
*ELEMENT,TYPE=C3D8,ELSET=SUPPORT
7783,2212,2213,2214,2215,2216,2217,2218,2219
*MATERIAL,NAME=SEAT
*ELASTIC
1120,.35
*SOLID SECTION,ELSET=SEAT,MATERIAL=SEAT
*MATERIAL,NAME=SUPPORT
*ELASTIC
1120,.35
*SOLID SECTION,ELSET=SUPPORT,MATERIAL=SUPPORT
*SURFACE,NAME=SLAVE,TYPE=ELEMENT
2461,S2
2553,S3
7239,S4
6615,S4
6048,S2
5089,S1
3644,S1
7247,S4
3503,S1
7205,S4
7717,S2
3784,S4
7284,S3
3487,S1
7007,S2
7043,S2
2116,S2
7160,S2
2781,S4
7296,S4
** ... 460 like lines cut
*SURFACE,NAME=MASTER,TYPE=ELEMENT
SUPPORT,S2
*SURFACE INTERACTION,NAME=NORMAL
*SURFACE BEHAVIOR,PRESSURE-OVERCLOSURE=LINEAR
1000000.0
*CONTACT PAIR,INTERACTION=NORMAL,TYPE=SURFACE TO SURFACE
SLAVE,MASTER
*NSET,NSET=ANCHORS
322,35
*BOUNDARY
SUPPORT,1,3,0
322,1,2,0
35,2,2,0
*STEP,NLGEOM,INC=100
*STATIC
.1,1,1e-6,.1
*CLOAD
47,3,-0.115444905655342
569,3,-0.27349967959222
1,3,-0.108576688069823
60,3,-0.179840893889593
2,3,-0.108588384353825
568,3,-0.273342913825747
53,3,-0.179839052498285
68,3,-0.115736525321872
54,3,-0.112694120358462
571,3,-0.267272644605205
3,3,-0.106613117233612
67,3,-0.177183319968216
61,3,-0.10802329608043
572,3,-0.271712584283741
4,3,-0.107228328301477
74,3,-0.178231443757858
5,3,-0.0455714145244586
513,3,-0.123663853038118
75,3,-0.0433274114964295
105,3,-0.0427401816212207
** ... 136 like lines cut
*NODE PRINT,NSET=SUPPORT,TOTALS=ONLY
RF
*NODE PRINT,NSET=ANCHORS,TOTALS=ONLY
RF
*NODE PRINT,NSET=SEAT
U
*CONTACT PRINT,SLAVE=SLAVE,MASTER=MASTER
CF,CDIS,CSTR
*END STEP
