*HEADING
Unilateral local boot-seat contact probe against an ideal fixed support block.
*NODE,NSET=SEAT
1,-36.0,-12.5,-14.6
2,-36.0,-16.5,-14.6
3,-32.0,-12.5,-14.6
4,-32.0,-16.5,-14.6
5,-32.85,-14.5,-14.6
6,-37.0,-10.5,-15.8
7,-37.8,-10.5,-15.8
8,-37.8,-18.0,-15.8
9,-30.0,-18.0,-15.8
10,-30.0,-16.0,-15.8
11,-30.5,-16.0,-15.8
12,-30.5,-12.0,-15.8
13,-31.5,-11.0,-15.8
14,-36.5,-11.0,-15.8
15,-37.0,-11.13397459621,-15.8
16,-31.0,-14.5,-15.8
17,-38.0,-10.5,-15.78321595662
18,-38.0,-10.5,-12.8
19,-37.0,-10.5,-12.8
20,-37.0,-11.13397459621,-12.8
** ... 1506 like lines cut
*ELEMENT,TYPE=C3D4,ELSET=SEAT
1,1291,1337,463,1416
2,1024,373,1407,1427
3,186,1316,797,1399
4,1376,1398,371,1427
5,757,797,723,1477
6,186,185,1316,1399
7,1024,1427,1407,1454
8,186,821,185,1399
9,1190,1158,1156,1401
10,1210,1160,1158,1401
11,1113,1234,1274,1433
12,943,1351,1300,1479
13,1169,1170,1171,1392
14,806,1326,1319,1525
15,640,1328,205,1359
16,1136,1151,1134,1386
17,532,648,219,1363
18,1128,1131,1129,1337
19,1297,1494,1415,1502
20,1295,1348,891,1358
** ... 5085 like lines cut
*NODE,NSET=SUPPORT
1527,-39,-19.5,-17
1528,-29,-19.5,-17
1529,-29,-9.5,-17
1530,-39,-9.5,-17
1531,-39,-19.5,-16
1532,-29,-19.5,-16
1533,-29,-9.5,-16
1534,-39,-9.5,-16
*ELEMENT,TYPE=C3D8,ELSET=SUPPORT
5106,1527,1528,1529,1530,1531,1532,1533,1534
*MATERIAL,NAME=SEAT
*ELASTIC
1120,.35
*SOLID SECTION,ELSET=SEAT,MATERIAL=SEAT
*MATERIAL,NAME=SUPPORT
*ELASTIC
1120,.35
*SOLID SECTION,ELSET=SUPPORT,MATERIAL=SUPPORT
*SURFACE,NAME=SLAVE,TYPE=ELEMENT
4699,S2
4569,S4
4622,S4
4754,S4
4711,S2
3933,S1
4655,S3
4707,S4
4514,S4
4690,S4
4434,S2
4491,S2
4533,S2
4550,S2
4545,S4
4662,S4
4695,S2
4733,S3
4418,S3
4473,S3
** ... 372 like lines cut
*SURFACE,NAME=MASTER,TYPE=ELEMENT
SUPPORT,S2
*SURFACE INTERACTION,NAME=NORMAL
*SURFACE BEHAVIOR,PRESSURE-OVERCLOSURE=LINEAR
10000.0
*CONTACT PAIR,INTERACTION=NORMAL,TYPE=SURFACE TO SURFACE
SLAVE,MASTER
*NSET,NSET=ANCHORS
267,35
*BOUNDARY
SUPPORT,1,3,0
267,1,2,0
35,2,2,0
*STEP,NLGEOM,INC=100
*STATIC
.1,1,1e-6,.1
*CLOAD
47,3,-0.254827766688948
465,3,-0.395422540775422
1,3,-0.183390560615046
56,3,-0.250859518303282
2,3,-0.121660663442619
474,3,-0.320508735697649
51,3,-0.22531192940768
62,3,-0.195926649014629
52,3,-0.231955371940861
478,3,-0.290916275277845
3,3,-0.118317493072296
61,3,-0.196395676626972
57,3,-0.254255510995021
466,3,-0.394273316820833
4,3,-0.184006771601783
66,3,-0.256627098856346
5,3,-0.042679769318058
419,3,-0.0855854342736045
67,3,-0.0407425619343684
97,3,-0.0479000084912944
** ... 111 like lines cut
*NODE PRINT,NSET=SUPPORT,TOTALS=ONLY
RF
*NODE PRINT,NSET=ANCHORS,TOTALS=ONLY
RF
*NODE PRINT,NSET=SEAT
U
*CONTACT PRINT,SLAVE=SLAVE,MASTER=MASTER
CF,CDIS,CSTR
*END STEP
