*HEADING
Local boss/spacer contact, minimum dimensional case; metal modulus is assumed.
*NODE,NSET=BOSS
1,37.925,6.0,-19.0
2,36.225,6.0,-19.0
3,33.0,8.0,-14.2
4,33.0,4.0,-14.2
5,37.0,8.0,-14.2
6,37.0,4.0,-14.2
7,36.15,6.0,-14.2
8,39.0,2.0,-19.0
9,39.0,2.0,-11.6
10,31.0,2.0,-19.0
11,31.0,2.0,-11.6
12,31.0,10.0,-11.6
13,39.0,10.0,-11.6
14,36.15,6.0,-11.6
15,36.15,6.0,-12.4
16,32.8,3.8,-12.4
17,32.8,8.2,-12.4
18,37.2,3.8,-12.4
19,37.2,8.2,-12.4
20,32.8,8.2,-14.2
** ... 5326 like lines cut
*ELEMENT,TYPE=C3D4,ELSET=BOSS
1,3596,3864,3383,4517
2,3454,3185,3516,3708
3,2566,2689,3329,4412
4,3445,3818,3170,4309
5,1939,4009,1938,4795
6,3397,4317,3561,5037
7,3198,3757,3834,4443
8,1294,4070,3415,4138
9,1840,4366,3758,5265
10,532,3467,39,3658
11,3189,4055,3957,4677
12,3649,4037,3500,4749
13,3774,3789,1723,4501
14,3230,3499,3618,4416
15,3276,3818,3785,4341
16,3174,3505,3920,4616
17,3909,4383,3435,4486
18,3742,4066,3209,4335
19,2033,2144,1986,3951
20,39,3658,3467,3955
** ... 23051 like lines cut
*SURFACE,NAME=BOSS_CONTACT,TYPE=ELEMENT
9367,S1
9608,S1
16202,S1
16415,S3
23055,S2
4902,S4
18235,S1
16865,S1
11291,S1
5655,S1
5210,S1
3570,S1
19954,S1
15397,S1
13346,S1
16986,S1
15634,S1
12066,S1
18480,S1
11302,S1
** ... 401 like lines cut
*NODE,NSET=SPACER
5347,37.925,6.0,-19.0
5348,36.225,6.0,-19.0
5349,36.9,6.0,-19.85
5350,36.225,6.0,-19.85
5351,37.975,6.0,-19.8
5352,37.975,6.0,-19.05
5353,37.925,6.0,-19.85
5354,36.175,6.0,-19.8
5355,36.175,6.0,-19.05
5356,37.88292653776705,6.494327399441407,-19.0
5357,37.75791652797367,6.974433899620516,-19.0
5358,37.55356628099648,7.426507710654878,-19.0
5359,37.27575458138143,7.83754349208975,-19.0
5360,36.93247356591599,8.195716492864216,-19.0
5361,36.53359880440491,8.490722727869933,-19.0
5362,36.09060519750741,8.714075404842287,-19.0
5363,35.61623686473751,8.85934907392198,-19.0
5364,35.12414051934874,8.922364476148692,-19.0
5365,34.62847287724039,8.901308773132216,-19.0
5366,34.1434933940161,8.796787699112313,-19.0
** ... 828 like lines cut
*ELEMENT,TYPE=C3D4,ELSET=SPACER
23072,5678,5371,5370,5538
23073,6040,5852,6023,6183
23074,5801,6147,5991,6154
23075,6152,6159,5949,6176
23076,6094,5658,5856,6113
23077,6050,6038,5405,5640
23078,5394,5629,6007,6056
23079,5687,6164,6150,6167
23080,6043,6010,5662,6102
23081,6056,5673,6026,6103
23082,5512,5586,5511,5934
23083,5713,6047,6019,6106
23084,6012,6063,5846,6104
23085,5647,6036,5412,6058
23086,5793,5375,5374,5542
23087,5537,5369,5370,5786
23088,5861,6054,6021,6105
23089,5861,6021,6044,6105
23090,5533,5532,5365,5915
23091,5550,5549,5382,5934
** ... 2676 like lines cut
*SURFACE,NAME=SPACER_CONTACT,TYPE=ELEMENT
25270,S1
25691,S4
24017,S3
25665,S2
24893,S3
25505,S3
25329,S2
24296,S1
25345,S3
24057,S3
25338,S3
25201,S1
25316,S2
24159,S1
25290,S3
24483,S2
25246,S1
24416,S1
24664,S2
24060,S4
** ... 401 like lines cut
*MATERIAL,NAME=BOSS
*ELASTIC
1120,.35
*SOLID SECTION,ELSET=BOSS,MATERIAL=BOSS
*MATERIAL,NAME=SPACER
*ELASTIC
193000,.3
*SOLID SECTION,ELSET=SPACER,MATERIAL=SPACER
*NSET,NSET=ANCHORS
10,8,5503,5353,5568
*SURFACE INTERACTION,NAME=NORMAL
*SURFACE BEHAVIOR,PRESSURE-OVERCLOSURE=LINEAR
1000000
*CONTACT PAIR,INTERACTION=NORMAL,TYPE=SURFACE TO SURFACE
BOSS_CONTACT,SPACER_CONTACT
*BOUNDARY
10,1,2,0
8,2,2,0
5503,1,3,0
5353,2,3,0
5568,3,3,0
*STEP,NLGEOM,INC=100
*STATIC
.1,1,1e-6,.1
*CLOAD
3,3,-0.106613117233612
4,3,-0.0990759933833161
5,3,-0.107228328301477
6,3,-0.107228328301477
7,3,-0.0415321870436606
94,3,-0.112694120358462
95,3,-0.107659590722408
96,3,-0.184393847498938
97,3,-0.172757022751914
98,3,-0.117008888521533
99,3,-0.171279243322411
100,3,-0.149212141561661
101,3,-0.108023296080429
102,3,-0.113368527979491
103,3,-0.145739965818843
104,3,-0.183241708531465
105,3,-0.116827198795942
106,3,-0.173393460360153
107,3,-0.177183319968215
108,3,-0.108023296080431
** ... 264 like lines cut
*NODE PRINT,NSET=ANCHORS,TOTALS=YES
RF
*NODE PRINT,NSET=BOSS
U
*NODE PRINT,NSET=SPACER
U
*CONTACT PRINT,SLAVE=BOSS_CONTACT,MASTER=SPACER_CONTACT
CF,CDIS,CSTR
*EL PRINT,ELSET=BOSS
S
*EL PRINT,ELSET=SPACER
S
*END STEP
