*HEADING
Local boss/spacer contact, minimum dimensional case; metal modulus is assumed.
*NODE,NSET=BOSS
1,37.925,6.0,-19.0
2,36.225,6.0,-19.0
3,33.0,8.0,-14.2
4,33.0,4.0,-14.2
5,37.0,8.0,-14.2
6,37.0,4.0,-14.2
7,36.15,6.0,-14.2
8,39.0,2.0,-19.0
9,39.0,2.0,-11.6
10,31.0,2.0,-19.0
11,31.0,2.0,-11.6
12,31.0,10.0,-11.6
13,39.0,10.0,-11.6
14,36.15,6.0,-11.6
15,36.15,6.0,-12.4
16,32.8,3.8,-12.4
17,32.8,8.2,-12.4
18,37.2,3.8,-12.4
19,37.2,8.2,-12.4
20,32.8,8.2,-14.2
** ... 5326 like lines cut
*ELEMENT,TYPE=C3D4,ELSET=BOSS
1,3596,3864,3383,4517
2,3454,3185,3516,3708
3,2566,2689,3329,4412
4,3445,3818,3170,4309
5,1939,4009,1938,4795
6,3397,4317,3561,5037
7,3198,3757,3834,4443
8,1294,4070,3415,4138
9,1840,4366,3758,5265
10,532,3467,39,3658
11,3189,4055,3957,4677
12,3649,4037,3500,4749
13,3774,3789,1723,4501
14,3230,3499,3618,4416
15,3276,3818,3785,4341
16,3174,3505,3920,4616
17,3909,4383,3435,4486
18,3742,4066,3209,4335
19,2033,2144,1986,3951
20,39,3658,3467,3955
** ... 23051 like lines cut
*SURFACE,NAME=BOSS_CONTACT,TYPE=ELEMENT
9367,S1
9608,S1
16204,S1
16417,S3
23052,S2
4900,S1
18237,S1
16867,S1
11291,S1
5653,S1
5208,S1
3568,S1
19954,S1
15398,S1
13346,S1
16988,S1
15635,S1
12066,S1
18482,S1
11302,S1
** ... 401 like lines cut
*NODE,NSET=SPACER
5347,37.925,6.0,-19.0
5348,36.225,6.0,-19.0
5349,32.1,6.0,-19.85
5350,37.9,6.0,-19.85
5351,35.0,8.9,-19.85
5352,36.9,6.0,-19.85
5353,36.225,6.0,-19.85
5354,37.975,6.0,-19.8
5355,37.975,6.0,-19.05
5356,37.925,6.0,-19.85
5357,36.175,6.0,-19.8
5358,36.175,6.0,-19.05
5359,37.88292653776705,6.494327399441407,-19.0
5360,37.75791652797367,6.974433899620516,-19.0
5361,37.55356628099648,7.426507710654878,-19.0
5362,37.27575458138143,7.83754349208975,-19.0
5363,36.93247356591599,8.195716492864216,-19.0
5364,36.53359880440491,8.490722727869933,-19.0
5365,36.09060519750741,8.714075404842287,-19.0
5366,35.61623686473751,8.85934907392198,-19.0
** ... 842 like lines cut
*ELEMENT,TYPE=C3D4,ELSET=SPACER
23072,5681,5374,5373,5541
23073,6054,5855,6037,6196
23074,5678,5981,6172,6182
23075,5788,5996,6140,6189
23076,6108,5661,5859,6127
23077,6064,6052,5408,5643
23078,5397,5632,6021,6070
23079,5679,5980,6160,6162
23080,5804,6161,6003,6173
23081,5690,6179,6166,6181
23082,6057,6024,5665,6116
23083,6070,5676,6040,6117
23084,5498,5918,5572,5497
23085,5515,5589,5514,5937
23086,5716,6061,6033,6120
23087,6026,6077,5849,6118
23088,5785,6162,6153,6180
23089,6050,5415,5650,6072
23090,5796,5378,5377,5545
23091,5540,5372,5373,5789
** ... 2719 like lines cut
*SURFACE,NAME=SPACER_CONTACT,TYPE=ELEMENT
25745,S3
25750,S2
24968,S1
25723,S2
24938,S3
25550,S3
25360,S3
24259,S3
25382,S3
24742,S1
25370,S2
24279,S2
25350,S2
24242,S3
25314,S3
24517,S2
25269,S1
24452,S1
24691,S3
24283,S1
** ... 401 like lines cut
*MATERIAL,NAME=BOSS
*ELASTIC
1120,.35
*SOLID SECTION,ELSET=BOSS,MATERIAL=BOSS
*MATERIAL,NAME=SPACER
*ELASTIC
193000,.3
*SOLID SECTION,ELSET=SPACER,MATERIAL=SPACER
*NSET,NSET=ANCHORS
10,8,5349,5350,5351
*SURFACE INTERACTION,NAME=NORMAL
*SURFACE BEHAVIOR,PRESSURE-OVERCLOSURE=LINEAR
1000000
*CONTACT PAIR,INTERACTION=NORMAL,TYPE=SURFACE TO SURFACE
BOSS_CONTACT,SPACER_CONTACT
*BOUNDARY
10,1,2,0
8,2,2,0
5349,1,3,0
5350,2,3,0
5351,3,3,0
*STEP,NLGEOM,INC=100
*STATIC
.1,1,1e-6,.1
*CLOAD
3,3,-0.106613117233612
4,3,-0.0990759933833161
5,3,-0.107228328301477
6,3,-0.107228328301477
7,3,-0.0415321870436606
94,3,-0.112694120358462
95,3,-0.107659590722408
96,3,-0.184393847498938
97,3,-0.172757022751914
98,3,-0.117008888521533
99,3,-0.171279243322411
100,3,-0.149212141561661
101,3,-0.108023296080429
102,3,-0.113368527979491
103,3,-0.145739965818843
104,3,-0.183241708531465
105,3,-0.116827198795942
106,3,-0.173393460360153
107,3,-0.177183319968215
108,3,-0.108023296080431
** ... 264 like lines cut
*NODE PRINT,NSET=ANCHORS,TOTALS=YES
RF
*NODE PRINT,NSET=BOSS
U
*NODE PRINT,NSET=SPACER
U
*CONTACT PRINT,SLAVE=BOSS_CONTACT,MASTER=SPACER_CONTACT
CF,CDIS,CSTR
*EL PRINT,ELSET=BOSS
S
*EL PRINT,ELSET=SPACER
S
*END STEP
