*HEADING
Local boss/spacer contact, minimum dimensional case; metal modulus is assumed.
*NODE,NSET=BOSS
1,37.925,6.0,-19.0
2,36.225,6.0,-19.0
3,33.0,8.0,-14.2
4,33.0,4.0,-14.2
5,37.0,8.0,-14.2
6,37.0,4.0,-14.2
7,36.15,6.0,-14.2
8,39.0,2.0,-19.0
9,39.0,2.0,-11.6
10,31.0,2.0,-19.0
11,31.0,2.0,-11.6
12,31.0,10.0,-11.6
13,39.0,10.0,-11.6
14,36.15,6.0,-11.6
15,36.15,6.0,-12.4
16,32.8,3.8,-12.4
17,32.8,8.2,-12.4
18,37.2,3.8,-12.4
19,37.2,8.2,-12.4
20,32.8,8.2,-14.2
** ... 3229 like lines cut
*ELEMENT,TYPE=C3D4,ELSET=BOSS
1,1057,955,1040,2810
2,2078,2356,1736,2534
3,1411,2510,2509,3155
4,1830,2433,2370,2770
5,1310,1559,1647,2630
6,1172,828,1093,2734
7,1281,2495,21,2772
8,1501,1500,2275,2907
9,986,1092,1139,2703
10,1352,1536,1525,2301
11,1395,1377,2725,2832
12,2306,2487,2686,2743
13,922,1167,1156,3200
14,1664,1663,1607,2934
15,2208,2412,2378,2906
16,314,2318,315,2637
17,1529,1398,1426,3105
18,2340,2208,2743,2858
19,2574,2609,2294,2947
20,2215,2245,2275,2323
** ... 12953 like lines cut
*SURFACE,NAME=BOSS_CONTACT,TYPE=ELEMENT
11118,S1
8250,S1
8018,S1
10410,S2
6484,S1
355,S1
7124,S1
11357,S1
8970,S1
5394,S1
6047,S1
4558,S1
3921,S1
8641,S1
10527,S1
7128,S1
12704,S2
7039,S1
10963,S1
9386,S1
** ... 326 like lines cut
*NODE,NSET=SPACER
3250,37.925,6.0,-19.0
3251,36.225,6.0,-19.0
3252,36.9,6.0,-19.85
3253,36.225,6.0,-19.85
3254,37.975,6.0,-19.8
3255,37.975,6.0,-19.05
3256,37.925,6.0,-19.85
3257,36.175,6.0,-19.8
3258,36.175,6.0,-19.05
3259,37.86879694517945,6.570639191897176,-19.0
3260,37.70234763259551,7.119349039667889,-19.0
3261,37.43204861598494,7.625042931582339,-19.0
3262,37.06828733497065,8.068287334970654,-19.0
3263,36.62504293158234,8.432048615984947,-19.0
3264,36.11934903966788,8.702347632595515,-19.0
3265,35.57063919189716,8.86879694517945,-19.0
3266,34.99999999999999,8.925,-19.0
3267,34.42936080810281,8.868796945179447,-19.0
3268,33.8806509603321,8.702347632595508,-19.0
3269,33.37495706841765,8.432048615984936,-19.0
** ... 743 like lines cut
*ELEMENT,TYPE=C3D4,ELSET=SPACER
12974,3799,3974,3648,3982
12975,3649,3837,3966,3978
12976,3779,3806,3960,4000
12977,3782,3838,3797,3972
12978,3668,3645,3561,3979
12979,3587,3972,3782,3973
12980,3947,3955,3597,3956
12981,3898,3844,3621,3968
12982,3885,3848,3295,3513
12983,3330,3955,3947,3956
12984,3825,3801,3979,3984
12985,3589,3958,3939,3979
12986,3885,3296,3851,3514
12987,3330,3331,3947,3955
12988,3791,3966,3837,3978
12989,3878,3311,3529,3867
12990,3860,3298,3516,3895
12991,3528,3867,3310,3877
12992,3898,3546,3865,3968
12993,3902,3923,3303,3521
** ... 2366 like lines cut
*SURFACE,NAME=SPACER_CONTACT,TYPE=ELEMENT
14751,S1
14683,S2
14410,S1
14422,S1
14488,S3
15083,S4
14799,S3
14142,S3
14804,S2
13785,S3
14797,S1
14333,S1
14812,S3
13897,S1
14793,S1
13796,S2
14863,S3
14412,S1
14792,S3
14069,S4
** ... 326 like lines cut
*MATERIAL,NAME=BOSS
*ELASTIC
1120,.35
*SOLID SECTION,ELSET=BOSS,MATERIAL=BOSS
*MATERIAL,NAME=SPACER
*ELASTIC
193000,.3
*SOLID SECTION,ELSET=SPACER,MATERIAL=SPACER
*NSET,NSET=ANCHORS
10,8,3461,3256,3453
*SURFACE INTERACTION,NAME=NORMAL
*SURFACE BEHAVIOR,PRESSURE-OVERCLOSURE=LINEAR
1000000
*CONTACT PAIR,INTERACTION=NORMAL,TYPE=SURFACE TO SURFACE
BOSS_CONTACT,SPACER_CONTACT
*BOUNDARY
10,1,2,0
8,2,2,0
3461,1,3,0
3256,2,3,0
3453,3,3,0
*STEP,NLGEOM,INC=100
*STATIC
.1,1,1e-6,.1
*CLOAD
3,3,-0.184019430073633
4,3,-0.121660663442619
5,3,-0.118317493072296
6,3,-0.118317493072298
7,3,-0.0477410149275089
89,3,-0.254308505736954
90,3,-0.215013613745876
91,3,-0.208285502006569
92,3,-0.216669933165088
93,3,-0.22531192940768
94,3,-0.233367953008005
95,3,-0.217692065964628
96,3,-0.207333718093785
97,3,-0.255734633669644
98,3,-0.256621365019301
99,3,-0.231955371940859
100,3,-0.209358675601297
101,3,-0.233685658818705
102,3,-0.266638643288806
103,3,-0.196395676626973
** ... 241 like lines cut
*NODE PRINT,NSET=ANCHORS,TOTALS=ONLY
RF
*NODE PRINT,NSET=BOSS
U
*NODE PRINT,NSET=SPACER
U
*CONTACT PRINT,SLAVE=BOSS_CONTACT,MASTER=SPACER_CONTACT
CF,CDIS,CSTR
*EL PRINT,ELSET=BOSS
S
*EL PRINT,ELSET=SPACER
S
*END STEP
