*HEADING
Contact compliance and release benchmark
*NODE,NSET=ALL
1,0.0,0.0,0
2,5.0,0.0,0
3,10.0,0.0,0
4,0.0,5.0,0
5,5.0,5.0,0
6,10.0,5.0,0
7,0.0,10.0,0
8,5.0,10.0,0
9,10.0,10.0,0
10,0.0,0.0,2
11,5.0,0.0,2
12,10.0,0.0,2
13,0.0,5.0,2
14,5.0,5.0,2
15,10.0,5.0,2
16,0.0,10.0,2
17,5.0,10.0,2
18,10.0,10.0,2
19,0.0,0.0,2
20,5.0,0.0,2
** ... 16 like lines cut
*ELEMENT,TYPE=C3D8,ELSET=LOWER
1,1,2,5,4,10,11,14,13
2,2,3,6,5,11,12,15,14
3,4,5,8,7,13,14,17,16
4,5,6,9,8,14,15,18,17
*ELEMENT,TYPE=C3D8,ELSET=UPPER
5,19,20,23,22,28,29,32,31
6,20,21,24,23,29,30,33,32
7,22,23,26,25,31,32,35,34
8,23,24,27,26,32,33,36,35
*NSET,NSET=BOTTOM
1,2,3,4,5,6,7,8,9
*NSET,NSET=TOP
28,29,30,31,32,33,34,35,36
*MATERIAL,NAME=LOWER
*ELASTIC
1120,0
*SOLID SECTION,ELSET=LOWER,MATERIAL=LOWER
*MATERIAL,NAME=UPPER
*ELASTIC
68300,0
*SOLID SECTION,ELSET=UPPER,MATERIAL=UPPER
*SURFACE,NAME=MASTER,TYPE=ELEMENT
LOWER,S2
*SURFACE,NAME=SLAVE,TYPE=ELEMENT
UPPER,S1
*SURFACE INTERACTION,NAME=CONTACT
*SURFACE BEHAVIOR,PRESSURE-OVERCLOSURE=LINEAR
10000.0
*CONTACT PAIR,INTERACTION=CONTACT,TYPE=SURFACE TO SURFACE
SLAVE,MASTER
*BOUNDARY
ALL,1,2,0
BOTTOM,3,3,0
*STEP,NLGEOM,INC=100
*STATIC
.1,1,1e-7,.1
*BOUNDARY
TOP,3,3,-0.01
*NODE PRINT,NSET=BOTTOM,TOTALS=ONLY
RF
*NODE PRINT,NSET=TOP,TOTALS=ONLY
RF
*CONTACT PRINT,SLAVE=SLAVE,MASTER=MASTER
CF,CDIS,CSTR
*END STEP
*STEP,NLGEOM,INC=100
*STATIC
.1,1,1e-7,.1
*BOUNDARY
TOP,3,3,0.01
*NODE PRINT,NSET=BOTTOM,TOTALS=ONLY
RF
*NODE PRINT,NSET=TOP,TOTALS=ONLY
RF
*CONTACT PRINT,SLAVE=SLAVE,MASTER=MASTER
CF,CDIS,CSTR
*END STEP
