*HEADING
Balanced local boot/yoke contact with both actual cropped parts deformable.
*NODE,NSET=BOOT
1,-36.0,-12.5,-14.6
2,-36.0,-16.5,-14.6
3,-32.0,-12.5,-14.6
4,-32.0,-16.5,-14.6
5,-32.85,-14.5,-14.6
6,-37.0,-10.5,-15.8
7,-37.8,-10.5,-15.8
8,-37.8,-18.0,-15.8
9,-30.0,-18.0,-15.8
10,-30.0,-16.0,-15.8
11,-30.5,-16.0,-15.8
12,-30.5,-12.0,-15.8
13,-31.5,-11.0,-15.8
14,-36.5,-11.0,-15.8
15,-37.0,-11.13397459621,-15.8
16,-31.0,-14.5,-15.8
17,-38.0,-10.5,-15.78321595662
18,-38.0,-10.5,-12.8
19,-37.0,-10.5,-12.8
20,-37.0,-11.13397459621,-12.8
** ... 2192 like lines cut
*ELEMENT,TYPE=C3D4,ELSET=BOOT
1,171,1829,1798,1851
2,1270,1800,1450,2039
3,492,1856,1790,2097
4,176,656,684,1837
5,492,1868,1856,2097
6,176,1817,1905,2031
7,1319,1842,1791,2003
8,1165,1786,1880,2037
9,1889,1915,937,1971
10,1665,1663,1680,1953
11,455,1859,1819,2061
12,846,194,927,1859
13,457,1990,458,2111
14,1790,2019,1870,2097
15,492,1790,1856,1870
16,492,1870,2019,2097
17,492,1790,1870,2097
18,492,1856,1868,2126
19,1328,1944,1331,2054
20,455,1873,1859,2061
** ... 7779 like lines cut
*SURFACE,NAME=BOOT_CONTACT,TYPE=ELEMENT
2788,S3
3260,S4
7200,S2
6187,S4
6269,S3
5369,S4
3642,S3
7198,S2
3459,S3
7158,S2
7593,S4
3779,S3
7236,S4
4017,S2
6954,S4
6994,S4
2816,S3
7168,S2
2753,S1
7250,S3
** ... 460 like lines cut
*NODE,NSET=YOKE
2213,-32.1,-14.5,-19.0
2214,-32.85,-14.5,-19.0
2215,-31.0,-14.5,-16.0
2216,-32.85,-14.5,-16.0
2217,-38.0,-17.2360679775,-16.0
2218,-38.0,-10.5,-16.0
2219,-36.0,-18.0,-16.0
2220,-30.0,-10.5,-16.0
2221,-30.0,-18.0,-16.0
2222,-38.0,-17.2360679775,-19.0
2223,-38.0,-10.5,-19.0
2224,-30.0,-10.5,-19.0
2225,-30.0,-18.0,-19.0
2226,-36.0,-18.0,-19.0
2227,-32.13650796723386,-14.12932838816936,-19.0
2228,-32.24462888822855,-13.77290147850633,-19.0
2229,-32.42020773662517,-13.44441655726275,-19.0
2230,-32.65649711574556,-13.15649711574556,-19.0
2231,-32.94441655726276,-12.92020773662516,-19.0
2232,-33.27290147850633,-12.74462888822855,-19.0
** ... 2589 like lines cut
*ELEMENT,TYPE=C3D4,ELSET=YOKE
7800,3891,4359,4238,4607
7801,4398,4472,3875,4519
7802,2567,3958,2252,4361
7803,3915,3999,3958,4209
7804,4238,4359,3947,4607
7805,3876,3961,4382,4718
7806,3032,4220,3955,4510
7807,3944,3999,4226,4412
7808,3875,4365,4232,4519
7809,2970,4083,2868,4112
7810,4159,4472,4398,4519
7811,3878,4193,3967,4785
7812,3146,3057,4031,4315
7813,3923,4050,4023,4555
7814,3888,4065,3961,4619
7815,2771,4013,4318,4526
7816,3907,3957,4324,4611
7817,4082,4311,4179,4386
7818,3880,4045,4486,4738
7819,3891,4083,4238,4359
** ... 10706 like lines cut
*SURFACE,NAME=YOKE_CONTACT,TYPE=ELEMENT
17702,S1
14770,S1
15754,S1
17390,S2
17448,S1
15667,S2
17023,S1
17534,S1
16438,S1
17582,S1
16859,S1
14102,S1
14844,S1
16178,S1
9715,S1
10958,S1
17589,S1
17347,S1
10207,S1
17443,S1
** ... 460 like lines cut
*MATERIAL,NAME=BOOT
*ELASTIC
1120,.35
*SOLID SECTION,ELSET=BOOT,MATERIAL=BOOT
*MATERIAL,NAME=YOKE
*ELASTIC
1120,.35
*SOLID SECTION,ELSET=YOKE,MATERIAL=YOKE
*NSET,NSET=ANCHORS
29,9,2492,2225,2223
*SURFACE INTERACTION,NAME=NORMAL
*SURFACE BEHAVIOR,PRESSURE-OVERCLOSURE=LINEAR
1000000
*CONTACT PAIR,INTERACTION=NORMAL,TYPE=SURFACE TO SURFACE
BOOT_CONTACT,YOKE_CONTACT
*BOUNDARY
29,1,2,0
9,2,2,0
2492,1,3,0
2225,2,3,0
2223,3,3,0
*STEP,NLGEOM,INC=100
*STATIC
.1,1,1e-6,.1
*CLOAD
1,3,-0.108576688069823
2,3,-0.108588384353825
3,3,-0.106613117233612
4,3,-0.107228328301477
5,3,-0.0455714145244586
47,3,-0.115444905655342
48,3,-0.109380475922128
49,3,-0.187736747790289
50,3,-0.175728721897768
51,3,-0.126422168927218
52,3,-0.180682986294337
53,3,-0.179839052498285
54,3,-0.112694120358462
55,3,-0.107659590722409
56,3,-0.184393847498937
57,3,-0.172773802430886
58,3,-0.114937580824322
59,3,-0.177996196184606
60,3,-0.179840893889593
61,3,-0.10802329608043
** ... 279 like lines cut
*NODE PRINT,NSET=ANCHORS,TOTALS=ONLY
RF
*NODE PRINT,NSET=BOOT
U
*NODE PRINT,NSET=YOKE
U
*CONTACT PRINT,SLAVE=BOOT_CONTACT,MASTER=YOKE_CONTACT
CF,CDIS,CSTR
*END STEP
