*HEADING
Local boss/spacer contact, minimum dimensional case; metal modulus is assumed.
*NODE,NSET=BOSS
1,37.925,6.0,-19.0
2,36.225,6.0,-19.0
3,33.0,8.0,-14.2
4,33.0,4.0,-14.2
5,37.0,8.0,-14.2
6,37.0,4.0,-14.2
7,36.15,6.0,-14.2
8,39.0,2.0,-19.0
9,39.0,2.0,-11.6
10,31.0,2.0,-19.0
11,31.0,2.0,-11.6
12,31.0,10.0,-11.6
13,39.0,10.0,-11.6
14,36.15,6.0,-11.6
15,36.15,6.0,-12.4
16,32.8,3.8,-12.4
17,32.8,8.2,-12.4
18,37.2,3.8,-12.4
19,37.2,8.2,-12.4
20,32.8,8.2,-14.2
** ... 3229 like lines cut
*ELEMENT,TYPE=C3D4,ELSET=BOSS
1,1057,955,1040,2810
2,2078,2356,1736,2534
3,1411,2510,2509,3155
4,1830,2433,2370,2770
5,1310,1559,1647,2630
6,828,1093,1172,2734
7,1281,2495,21,2772
8,1501,1500,2275,2907
9,986,1092,1139,2703
10,1352,1536,1525,2301
11,1395,1377,2725,2832
12,2306,2487,2686,2743
13,922,1167,1156,3200
14,1664,1663,1607,2934
15,2208,2412,2378,2906
16,314,2318,315,2637
17,1529,1398,1426,3105
18,2340,2208,2743,2858
19,2574,2609,2294,2947
20,2215,2245,2275,2323
** ... 12953 like lines cut
*SURFACE,NAME=BOSS_CONTACT,TYPE=ELEMENT
11119,S1
8250,S1
8018,S1
10410,S3
6484,S1
355,S1
7124,S1
11358,S1
8970,S1
5394,S1
6047,S1
4558,S1
3921,S1
8641,S1
10527,S1
7128,S1
12704,S2
7039,S1
10963,S1
9386,S1
** ... 326 like lines cut
*NODE,NSET=SPACER
3250,37.925,6.0,-19.0
3251,36.225,6.0,-19.0
3252,32.1,6.0,-19.85
3253,37.9,6.0,-19.85
3254,35.0,8.9,-19.85
3255,36.9,6.0,-19.85
3256,36.225,6.0,-19.85
3257,37.975,6.0,-19.8
3258,37.975,6.0,-19.05
3259,37.925,6.0,-19.85
3260,36.175,6.0,-19.8
3261,36.175,6.0,-19.05
3262,37.86879694517945,6.570639191897176,-19.0
3263,37.70234763259551,7.119349039667889,-19.0
3264,37.43204861598494,7.625042931582339,-19.0
3265,37.06828733497065,8.068287334970654,-19.0
3266,36.62504293158234,8.432048615984947,-19.0
3267,36.11934903966788,8.702347632595515,-19.0
3268,35.57063919189716,8.86879694517945,-19.0
3269,34.99999999999999,8.925,-19.0
** ... 794 like lines cut
*ELEMENT,TYPE=C3D4,ELSET=SPACER
12974,3814,4001,3794,4049
12975,3795,3856,3808,4014
12976,3590,4014,3795,4015
12977,3936,3882,3624,4009
12978,3331,3992,3984,4055
12979,3598,3992,3984,4020
12980,3834,3832,3975,4050
12981,3923,3886,3298,3516
12982,3299,3889,3923,3517
12983,3916,3314,3532,3905
12984,3898,3301,3519,3933
12985,3531,3905,3313,3915
12986,3936,3549,3903,4009
12987,3565,4026,3841,4027
12988,3940,3961,3306,3524
12989,3915,3312,3530,3888
12990,3933,3300,3518,3889
12991,3879,3318,3906,3536
12992,3795,3840,3640,4015
12993,3642,3992,3598,4020
** ... 2562 like lines cut
*SURFACE,NAME=SPACER_CONTACT,TYPE=ELEMENT
15417,S4
14792,S2
14831,S1
14461,S3
14546,S3
15267,S4
14948,S3
14089,S1
14953,S2
13774,S3
14946,S1
13965,S1
14967,S3
14747,S1
14937,S1
13789,S2
15029,S3
14923,S1
14936,S2
15041,S1
** ... 326 like lines cut
*MATERIAL,NAME=BOSS
*ELASTIC
1120,.35
*SOLID SECTION,ELSET=BOSS,MATERIAL=BOSS
*MATERIAL,NAME=SPACER
*ELASTIC
193000,.3
*SOLID SECTION,ELSET=SPACER,MATERIAL=SPACER
*NSET,NSET=ANCHORS
10,8,3252,3253,3254
*SURFACE INTERACTION,NAME=NORMAL
*SURFACE BEHAVIOR,PRESSURE-OVERCLOSURE=LINEAR
1000000
*CONTACT PAIR,INTERACTION=NORMAL,TYPE=SURFACE TO SURFACE
BOSS_CONTACT,SPACER_CONTACT
*EQUATION
6496
2791,1,1.000000000000e+00,1,1,9.333307525092e-02,1,2,1.617490000353e-01,2,1,1.447732945100e-02
2,2,1.690404287094e-02,3,1,1.530866522485e-02,3,2,4.344090258171e-03,4,1,8.137627778537e-02
4,2,4.643014729132e-03,5,1,1.779036636016e-02,5,2,7.573775495427e-02,6,1,3.963601416047e-02
6,2,3.392799823123e-02,7,1,4.737585277072e-03,7,2,5.413530404843e-03,8,1,4.340698303867e-02
8,2,3.894022640464e-02,9,1,5.614198383056e-02,9,2,5.036474336905e-02,10,1,4.561683779339e-02
10,2,-1.116116699084e-02,11,1,4.077512496885e-02,11,2,-9.976535000321e-03,12,1,-6.153720577854e-03
12,2,-1.062047721189e-02,13,1,-6.074387709458e-03,13,2,3.843821468383e-02,14,1,2.346260475412e-03
14,2,2.681018214657e-03,15,1,2.613851985395e-03,15,2,2.986788916534e-03,16,1,4.080547854172e-01
16,2,6.713421993652e-03,17,1,5.118074301495e-02,17,2,5.434915757068e-03,18,1,3.956157241276e-01
18,2,3.408312262782e-01,19,1,5.665184330695e-02,19,2,3.150218200489e-01,20,1,3.324088029085e-02
20,2,3.529870287713e-03,21,1,5.614264624366e-02,21,2,3.121903466796e-01,22,1,3.903428323171e-01
22,2,6.422020398224e-03,23,1,3.726638948557e-01,23,2,3.210577449957e-01,24,1,1.277133546202e-03
24,2,1.459351310650e-03,25,1,-5.959242470670e-03,25,2,3.770958529432e-02,26,1,-6.381564753913e-03
26,2,-1.101370499158e-02,27,1,3.567171990812e-02,27,2,7.547845393150e-02,28,1,6.074771091677e-02
28,2,1.605497703681e-01,29,1,1.860316290556e-02,29,2,6.352210410833e-02,30,1,2.065116699858e-02
30,2,9.581742733279e-02,31,1,1.321216219996e-02,31,2,8.991693361737e-02,32,1,7.364518168954e-03
32,2,8.239831079694e-02,33,1,3.941919096154e-03,33,2,8.165988970760e-02,34,1,1.139399222534e-03
34,2,3.188494649827e-02,35,1,4.725829470660e-03,35,2,5.878208500947e-02,36,1,5.061774211082e-03
36,2,1.939872636765e-02,37,1,6.585931329435e-03,37,2,7.571477273450e-03,38,1,2.458214397182e-02
** ... 1605 like lines cut
*EQUATION
6496
2401,1,1.000000000000e+00,1,1,1.015918280951e-01,1,2,-1.755020417908e-01,2,1,1.575838319812e-02
2,2,-1.834134392004e-02,3,1,8.276905800809e-02,3,2,-4.713455476487e-03,4,1,1.792237971666e-02
4,2,-5.037796616052e-03,5,1,9.618682253622e-02,5,2,-8.217751350690e-02,6,1,8.729469024283e-03
6,2,-3.681279613573e-02,7,1,5.156799427861e-03,7,2,-5.873826973517e-03,8,1,-6.612508485714e-03
8,2,-4.225119932933e-02,9,1,-8.552525849439e-03,9,2,-5.464710937076e-02,10,1,-6.949152092221e-03
10,2,1.211016819414e-02,11,1,-6.211577976345e-03,11,2,1.082481042957e-02,12,1,4.716219599711e-02
12,2,1.152350515350e-02,13,1,4.655418784319e-02,13,2,-4.170650302836e-02,14,1,2.553873749940e-03
14,2,-2.908977308349e-03,15,1,2.845143598370e-03,15,2,-3.240746793709e-03,16,1,6.941118464872e-02
16,2,-7.284244521032e-03,17,1,3.590929449768e-01,17,2,-5.897030659346e-03,18,1,6.729526783833e-02
18,2,-3.698111030353e-01,19,1,3.974791308817e-01,19,2,-3.418071989019e-01,20,1,2.332237653091e-01
20,2,-3.830004776630e-03,21,1,3.939065162172e-01,21,2,-3.387349736796e-01,22,1,6.639833517102e-02
22,2,-6.968065904981e-03,23,1,6.339110173967e-02,23,2,-3.483563407948e-01,24,1,1.390143111984e-03
24,2,-1.583435660520e-03,25,1,4.567171320835e-02,25,2,-4.091592042482e-02,26,1,4.890839677957e-02
26,2,1.195016793478e-02,27,1,5.699021173242e-02,27,2,-8.189616488079e-02,28,1,1.444318563397e-01
28,2,-1.742008451521e-01,29,1,6.780700329405e-02,29,2,-6.892320179679e-02,30,1,1.214099980552e-01
30,2,-1.039645013718e-01,31,1,1.359218066081e-01,31,2,-9.756230602957e-02,32,1,1.501519828710e-01
32,2,-8.940439682362e-02,33,1,1.825561402575e-01,33,2,-8.860318996081e-02,34,1,8.992764957050e-02
34,2,-3.459602972269e-02,35,1,2.188601964257e-01,35,2,-6.378015281476e-02,36,1,1.032023300375e-01
36,2,-2.104814301740e-02,37,1,6.775360996522e-02,37,2,-8.215257717658e-03,38,1,1.445205518902e-01
** ... 1605 like lines cut
*EQUATION
3249
2791,2,1.000000000000e+00,1,2,1.869637614724e-01,2,2,2.900082273040e-02,3,2,9.159160888785e-02
4,2,9.789418816318e-02,5,2,1.064396048707e-01,6,2,4.768140708644e-02,7,2,9.490277281836e-03
8,2,3.731265715861e-02,9,2,4.825966810474e-02,10,2,3.921224904593e-02,11,2,3.505031108029e-02
12,2,3.731265715861e-02,13,2,3.683162782320e-02,14,2,4.700002466410e-03,15,2,5.236038754832e-03
16,2,4.720266320899e-01,17,2,3.821337289577e-01,18,2,4.576374656919e-01,19,2,4.229829201364e-01
20,2,2.481882987839e-01,21,2,4.191810727792e-01,22,2,4.515379284443e-01,23,2,4.310874163880e-01
24,2,2.558339485318e-03,25,2,3.613345266819e-02,26,2,3.869417448936e-02,27,2,8.819595076867e-02
28,2,1.938613094698e-01,29,2,8.109653828905e-02,30,2,1.325469921373e-01,31,2,1.384825925466e-01
32,2,1.457499912659e-01,33,2,1.721922302358e-01,34,2,8.401995858884e-02,35,2,2.064352657721e-01
36,2,1.001767570029e-01,37,2,6.903009749884e-02,38,2,1.577774875374e-01,39,2,1.050798111958e-01
40,2,2.027422798644e-01,41,2,1.995993064242e-01,42,2,1.200826216003e-01,43,2,2.040707541232e-01
44,2,1.316461013983e-01,45,2,9.899349000549e-02,46,2,1.444835656663e-01,47,2,1.196492648035e-01
48,2,2.259967741133e-01,49,2,1.458506926325e-01,50,2,1.453371668426e-01,51,2,1.296663960474e-01
52,2,1.346507498912e-01,53,2,1.264267437744e-01,54,2,8.461462380102e-02,55,2,1.676794039139e-01
56,2,1.206617038814e-01,57,2,5.656609528804e-02,58,2,2.691823800212e-03,59,2,3.859522054713e-03
60,2,5.350420305068e-03,61,2,3.544675850520e-03,62,2,7.044149929551e-03,63,2,3.049778915445e-03
64,2,6.379912534475e-03,65,2,5.954720858559e-03,66,2,3.118561382936e-03,67,2,3.330814763330e-03
68,2,7.095603401679e-03,69,2,4.934820886973e-03,70,2,4.189044699017e-03,71,2,5.117890196458e-03
72,2,2.816330455813e-03,73,2,2.795001274444e-03,74,2,3.079916189617e-03,75,2,5.724852580809e-03
** ... 794 like lines cut
*EQUATION
1626
4049,1,1.000000000000e+00,3250,1,5.280613600149e-02,3250,2,8.976462070813e-02,3251,1,4.277278246774e-03
3251,2,3.045654359029e-03,3252,1,2.508199743476e-03,3252,2,-4.226065485854e-03,3253,1,1.959974582738e-03
3253,2,3.303268584736e-03,3254,1,-1.672893678665e-03,3254,2,5.653477363091e-07,3255,1,6.504711323326e-02
3255,2,7.183043213710e-02,3256,1,1.078817390139e-03,3256,2,7.681765593225e-04,3257,1,3.142618350513e-02
3257,2,5.433411002408e-02,3258,1,3.190086512482e-02,3258,2,5.515480794136e-02,3259,1,1.986988281468e-03
3259,2,3.377661441323e-03,3260,1,1.588393360252e-02,3260,2,1.084873153799e-02,3261,1,5.730657169640e-03
3261,2,3.914040610181e-03,3262,1,7.527571063873e-02,3262,2,1.877611887913e-01,3263,1,1.808239349221e-02
3263,2,8.123892800905e-02,3264,1,4.594604074869e-03,3264,2,1.165502677141e-01,3265,1,-1.347469801089e-02
3265,2,8.024945966934e-02,3266,1,-2.488712563568e-02,3266,2,5.688613901497e-02,3267,1,-3.871439988423e-02
3267,2,4.417133779858e-02,3268,1,-4.361924654507e-02,3268,2,2.169965721658e-02,3269,1,-5.307396704156e-02
3269,2,1.756372751139e-05,3270,1,-4.411539336515e-02,3270,2,-2.191585203635e-02,3271,1,-4.929490410852e-02
3271,2,-5.620317510688e-02,3272,1,-2.935871900529e-02,3272,2,-6.707425262879e-02,3273,1,-1.397395797521e-02
3273,2,-8.319077558142e-02,3274,1,4.630562261339e-03,3274,2,-1.174239276042e-01,3275,1,2.268167402921e-02
3275,2,-1.018721095837e-01,3276,1,4.485577058089e-02,3276,2,-1.118532587982e-01,3277,1,6.867775343143e-02
3277,2,-1.167128209731e-01,3278,1,8.985050912800e-02,3278,2,-1.124673057046e-01,3279,1,8.807973059693e-02
3279,2,-8.378987259753e-02,3280,1,1.366568165658e-01,3280,2,-9.931376536693e-02,3281,1,9.246109010239e-03
3281,2,-5.045872013163e-03,3282,1,1.376598774025e-01,3282,2,-5.385246668583e-02,3283,1,1.046526155288e-01
3283,2,-2.647380703200e-02,3284,1,1.306328777694e-01,3284,2,-1.623018613044e-02,3285,1,2.396112959820e-01
3285,2,2.055037161014e-05,3286,1,1.586648324523e-01,3286,2,1.974050206487e-02,3287,1,1.414108494823e-01
** ... 388 like lines cut
*EQUATION
2437
4049,3,1.000000000000e+00,3250,1,-1.025807037979e-02,3250,2,1.794671925731e-02,3250,3,9.882163073800e-02
3251,1,-8.309000546473e-04,3251,2,1.461454883427e-03,3251,3,4.842558461291e-03,3252,1,4.398471039655e-04
3252,2,-7.487064020525e-04,3252,3,-1.659421174148e-03,3253,1,3.437083295721e-04,3253,2,-5.972176118377e-04
3253,3,3.646597503381e-03,3254,1,4.357609330533e-04,3254,2,-7.364329481706e-04,3254,3,-3.906094489482e-03
3255,1,1.140690028830e-02,3255,2,-1.975072837850e-02,3255,3,9.273654987968e-02,3256,1,1.891853732919e-04
3256,2,-3.267903366709e-04,3256,3,1.221392665942e-03,3257,1,4.827726556156e-03,3257,2,-8.386697208852e-03
3257,3,5.949437961081e-02,3258,1,-5.503427108404e-03,3258,2,9.630543129113e-03,3258,3,6.039302161332e-02
3259,1,3.484455508339e-04,3259,2,-6.055019988662e-04,3259,3,3.718458442527e-03,3260,1,2.440108200113e-03
3260,2,-4.208361904670e-03,3260,3,1.763777951165e-02,3261,1,-9.886331888796e-04,3261,2,1.741058938250e-03
3261,3,6.363415394717e-03,3262,1,-2.180843973765e-02,3262,2,3.828136403349e-02,3262,3,1.592676812868e-01
3263,1,-9.986646443518e-03,3263,2,1.759251905495e-02,3263,3,4.788588630969e-02,3264,1,-1.587494543664e-02
3264,2,2.806777440820e-02,3264,3,3.501998212448e-02,3265,1,-1.282092084848e-02,3265,2,2.275002050925e-02
3265,3,-4.647429351537e-03,3266,1,-1.154319613167e-02,3266,2,2.055289925588e-02,3266,3,-3.241577452085e-02
3267,1,-1.299139545527e-02,3267,2,2.320310911191e-02,3267,3,-6.538152886695e-02,3268,1,-1.250314543467e-02
3268,2,2.239024857536e-02,3268,3,-8.684158232640e-02,3269,1,-1.449859274981e-02,3269,2,2.601809695592e-02
3269,3,-1.227892624987e-01,3270,1,-1.264536237649e-02,3270,2,2.272565942666e-02,3270,3,-1.206536766566e-01
3271,1,-1.654189642919e-02,3271,2,2.975140326505e-02,3271,3,-1.673991537772e-01,3272,1,-1.361721946575e-02
3272,2,2.449271531037e-02,3272,3,-1.386545475138e-01,3273,1,-1.329595728197e-02,3273,2,2.389924792129e-02
3273,3,-1.293550199674e-01,3274,1,-1.599918557548e-02,3274,2,2.871977019817e-02,3274,3,-1.404828115903e-01
** ... 591 like lines cut
*EQUATION
2437
4024,3,1.000000000000e+00,3250,1,1.925552603587e-02,3250,2,-7.637042721606e-03,3250,3,-8.637614328500e-02
3251,1,1.559690764745e-03,3251,2,-6.331960348506e-04,3251,3,-1.061093118413e-03,3252,1,-8.256413778263e-04
3252,2,3.173303189482e-04,3252,3,7.823082715931e-03,3253,1,-6.451783272865e-04,3253,2,2.707929654858e-04
3253,3,-3.165976675801e-03,3254,1,-8.179711857265e-04,3254,2,3.231345033735e-04,3254,3,4.191963474995e-03
3255,1,-2.141200609450e-02,3255,2,8.856413556754e-03,3255,3,-5.197611719590e-02,3256,1,-3.551217476733e-04
3256,2,1.454231529743e-04,3256,3,-2.676294696432e-04,3257,1,-9.062173581814e-03,3257,2,3.823769567838e-03
3257,3,-5.268709034768e-02,3258,1,1.033053781549e-02,3258,2,-4.079685869109e-03,3258,3,-5.348291060307e-02
3259,1,-6.540706124793e-04,3259,2,2.746249466145e-04,3259,3,-3.250159877269e-03,3260,1,-4.580351395344e-03
3260,2,1.875271348705e-03,3260,3,-3.292161616734e-03,3261,1,1.855773201352e-03,3261,2,-7.535821072635e-04
3261,3,-1.187756763825e-03,3262,1,4.093683934918e-02,3262,2,-1.630006932032e-02,3262,3,-1.576621642999e-01
3263,1,1.874603346289e-02,3263,2,-7.504197142461e-03,3263,3,-5.594443308145e-02,3264,1,2.979901812484e-02
3264,2,-1.200706036861e-02,3264,3,-5.711178004195e-02,3265,1,2.406627816554e-02,3265,2,-9.769831847598e-03
3265,3,-1.656975388184e-02,3266,1,2.166784837901e-02,3266,2,-8.867627983012e-03,3266,3,1.413210177511e-02
3267,1,2.438627774713e-02,3267,2,-1.006415156653e-02,3267,3,5.005713330261e-02,3268,1,2.346977877261e-02
3268,2,-9.766974899063e-03,3268,3,8.113307680245e-02,3269,1,2.721545279388e-02,3269,2,-1.141620791893e-02
3269,3,1.308632751652e-01,3270,1,2.373673560997e-02,3270,2,-1.002961423640e-02,3270,3,1.436707735563e-01
3271,1,3.105095847290e-02,3271,2,-1.320315122144e-02,3271,3,2.216946628600e-01,3272,1,2.556101822769e-02
3272,2,-1.092451728020e-02,3272,3,2.051602878065e-01,3273,1,2.495797378414e-02,3273,2,-1.070678163309e-02
3273,3,2.165829401613e-01,3274,1,3.003223052635e-02,3274,2,-1.291256522167e-02,3274,3,2.723937587578e-01
** ... 591 like lines cut
*EQUATION
2437
4062,3,1.000000000000e+00,3250,1,-8.784497178727e-03,3250,2,-1.183218900467e-02,3250,3,1.159543625041e-01
3251,1,-7.115411491262e-04,3251,2,-9.517432686856e-04,3251,3,6.684519412492e-03,3252,1,3.766630078371e-04
3252,2,4.949489347453e-04,3252,3,6.700292956895e-05,3253,1,2.943345814218e-04,3253,2,3.763545867194e-04
3253,3,4.285563935045e-03,3254,1,3.731638159305e-04,3254,2,4.753433224321e-04,3254,3,6.168119407162e-03
3255,1,9.768297515094e-03,3255,2,1.254993206811e-02,3255,3,1.180056497240e-01,3256,1,1.620088687647e-04
3256,2,2.088097073802e-04,3256,3,1.685973034921e-03,3257,1,4.134222981719e-03,3257,2,5.263162677608e-03
3257,3,6.959232061129e-02,3258,1,-4.712859058011e-03,3258,2,-6.368682074793e-03,3258,3,7.064348851593e-02
3259,1,2.983913002070e-04,3259,2,3.814962638758e-04,3259,3,4.363128547678e-03,3260,1,2.089586326285e-03
3260,2,2.686379927682e-03,3260,3,2.452762435675e-02,3261,1,-8.466158972372e-04,3261,2,-1.134619550698e-03
3261,3,8.849156002005e-03,3262,1,-1.867565441209e-02,3262,2,-2.522846588546e-02,3262,3,2.763932436155e-01
3263,1,-8.552063327706e-03,3263,2,-1.157999646961e-02,3263,3,1.376394952335e-01,3264,1,-1.359450737201e-02
3264,2,-1.843906202819e-02,3264,3,2.315199710557e-01,3265,1,-1.097919383006e-02,3265,2,-1.490627036248e-02
3265,3,1.928828579438e-01,3266,1,-9.885014442085e-03,3266,2,-1.342351385460e-02,3266,3,1.747957671957e-01
3267,1,-1.112517973647e-02,3267,2,-1.509899612841e-02,3267,3,1.932207596938e-01,3268,1,-1.070706689754e-02
3268,2,-1.451220218279e-02,3268,3,1.780978907464e-01,3269,1,-1.241586793528e-02,3269,2,-1.679393228602e-02
3269,3,1.925540015359e-01,3270,1,-1.082885435638e-02,3270,2,-1.460813532807e-02,3270,3,1.520145659829e-01
3271,1,-1.416565076404e-02,3271,2,-1.904825871681e-02,3271,3,1.739662250642e-01,3272,1,-1.166110404298e-02
3272,2,-1.562388649912e-02,3272,3,1.202122724457e-01,3273,1,-1.138599121546e-02,3273,2,-1.519627136186e-02
3273,3,9.338361935556e-02,3274,1,-1.370090039806e-02,3274,2,-1.821314159860e-02,3274,3,8.280539178948e-02
** ... 591 like lines cut
*EQUATION
1626
4062,1,1.000000000000e+00,3250,1,7.654899982622e-02,3250,2,-9.906596524496e-02,3251,1,6.200441777443e-03
3251,2,-3.361242842664e-03,3252,1,3.635944537242e-03,3252,2,4.663967309635e-03,3253,1,2.841224625660e-03
3253,2,-3.645550866574e-03,3254,1,8.080520618680e-03,3254,2,-6.239286564650e-07,3255,1,9.429380440653e-02
3255,2,-7.927344913272e-02,3256,1,1.563878716820e-03,3256,2,-8.477744542059e-04,3257,1,4.555612468227e-02
3257,2,-5.996417088157e-02,3258,1,4.624423417058e-02,3258,2,-6.086990891854e-02,3259,1,2.880384310045e-03
3259,2,-3.727652256709e-03,3260,1,2.302571865029e-02,3260,2,-1.197286918851e-02,3261,1,8.307293581763e-03
3261,2,-4.319610643890e-03,3262,1,2.044667309404e-01,3262,2,-2.072168662488e-01,3263,1,1.121172782007e-01
3263,2,-8.965684648577e-02,3264,1,2.054652026887e-01,3264,2,-1.286271214602e-01,3265,1,1.853236276244e-01
3265,2,-8.856485015827e-02,3266,1,1.812429246476e-01,3266,2,-6.278063925542e-02,3267,1,2.160571519821e-01
3267,2,-4.874833960928e-02,3268,1,2.151113321318e-01,3268,2,-2.394815987287e-02,3269,1,2.522546853472e-01
3269,2,-1.938366814775e-05,3270,1,2.175581145009e-01,3270,2,2.418675664220e-02,3271,1,2.751047832529e-01
3271,2,6.202690712523e-02,3272,1,2.138077403683e-01,3272,2,7.402443777221e-02,3273,1,1.921901761468e-01
3273,2,9.181094308020e-02,3274,1,2.070732098098e-01,3274,2,1.295913093510e-01,3275,1,1.406344551835e-01
3275,2,1.124280232884e-01,3276,1,1.218389397678e-01,3276,2,1.234434119058e-01,3277,1,9.955686466701e-02
3277,2,1.288065183693e-01,3278,1,7.312250817566e-02,3278,2,1.241210859048e-01,3279,1,3.905421744452e-02
3279,2,9.247211809223e-02,3280,1,2.864165172590e-02,3280,2,1.096045853096e-01,3281,1,5.175569187317e-04
3281,2,5.568721591459e-03,3282,1,-6.276423326862e-03,3282,2,5.943262001184e-02,3283,1,-1.153772021753e-02
3283,2,2.921700361060e-02,3284,1,-1.910806308488e-02,3284,2,1.791194618139e-02,3285,1,-3.782366487881e-02
3285,2,-2.267978613000e-05,3286,1,-2.320838122546e-02,3286,2,-2.178599849305e-02,3287,1,-1.559023449923e-02
** ... 388 like lines cut
*EQUATION
814
4049,2,1.000000000000e+00,3250,2,1.221679185067e-01,3251,2,9.895557975829e-03,3252,2,5.802763941123e-03
3253,2,4.534435450690e-03,3254,2,5.648943509985e-03,3255,2,1.504876332620e-01,3256,2,2.495862886054e-03
3257,2,7.270502475929e-02,3258,2,7.380320898222e-02,3259,2,4.596932114807e-03,3260,2,3.674775798524e-02
3261,2,1.325797551388e-02,3262,2,2.605449754656e-01,3263,2,1.196729339733e-01,3264,2,1.907685937237e-01
3265,2,1.544488174046e-01,3266,2,1.393388256968e-01,3267,2,1.570570565488e-01,3268,2,1.512951934554e-01
3269,2,1.754964213461e-01,3270,2,1.530160995937e-01,3271,2,1.999801770218e-01,3272,2,1.643745240027e-01
3273,2,1.601714028759e-01,3274,2,1.922615825762e-01,3275,2,1.501119019266e-01,3276,2,1.552552017951e-01
3277,2,1.588871828114e-01,3278,2,1.561075147039e-01,3279,2,1.234671313787e-01,3280,2,1.626092917400e-01
3281,2,9.715072295358e-03,3282,2,1.319727500632e-01,3283,2,9.419817664451e-02,3284,2,1.133188786473e-01
3285,2,2.053389106755e-01,3286,2,1.376354957593e-01,3287,2,1.272843885619e-01,3288,2,9.511716432005e-03
3289,2,1.285594179184e-01,3290,2,1.389399106925e-01,3291,2,1.877242674517e-01,3292,2,1.150783616758e-01
3293,2,1.193812376810e-02,3294,2,1.782727763862e-02,3295,2,2.810615346909e-03,3296,2,1.976661912797e-03
3297,2,3.229590146135e-03,3298,2,1.235896715753e-02,3299,2,1.570414422545e-02,3300,2,2.788217260629e-02
3301,2,1.632468251507e-02,3302,2,1.666999304132e-02,3303,2,1.874630827638e-02,3304,2,3.174964575157e-02
3305,2,1.396384141277e-02,3306,2,1.482408753879e-02,3307,2,2.600340975299e-03,3308,2,2.580987312549e-03
3309,2,2.594486069347e-03,3310,2,2.588194693611e-03,3311,2,9.395616934288e-03,3312,2,1.520193326083e-02
3313,2,1.562858584365e-02,3314,2,3.067957346958e-02,3315,2,1.666999304132e-02,3316,2,1.649474800859e-02
3317,2,1.592179900368e-02,3318,2,1.576838057813e-02,3319,2,3.018989001875e-02,3320,2,9.681590327488e-03
3321,2,3.229590146135e-03,3322,2,2.031617888017e-03,3323,2,1.430305539864e-02,3324,2,1.776701508958e-01
** ... 185 like lines cut
*STEP,NLGEOM,INC=100
*STATIC
.1,1,1e-6,.1
*CLOAD
3,3,-0.184019430073633
4,3,-0.121660663442619
5,3,-0.118317493072296
6,3,-0.118317493072298
7,3,-0.0477410149275089
89,3,-0.254308505736954
90,3,-0.215013613745876
91,3,-0.208285502006569
92,3,-0.216669933165088
93,3,-0.22531192940768
94,3,-0.233367953008005
95,3,-0.217692065964628
96,3,-0.207333718093785
97,3,-0.255734633669644
98,3,-0.256621365019301
99,3,-0.231955371940859
100,3,-0.209358675601297
101,3,-0.233685658818705
102,3,-0.266638643288806
103,3,-0.196395676626973
** ... 241 like lines cut
*NODE PRINT,NSET=BOSS
U
*NODE PRINT,NSET=SPACER
U
*CONTACT PRINT,SLAVE=BOSS_CONTACT,MASTER=SPACER_CONTACT
CF,CDIS,CSTR
*EL PRINT,ELSET=BOSS
S
*EL PRINT,ELSET=SPACER
S
*END STEP
