*HEADING
Local boss/spacer contact, minimum dimensional case; metal modulus is assumed.
*NODE,NSET=BOSS
1,37.925,6.0,-19.0
2,36.225,6.0,-19.0
3,33.0,8.0,-14.2
4,33.0,4.0,-14.2
5,37.0,8.0,-14.2
6,37.0,4.0,-14.2
7,36.15,6.0,-14.2
8,39.0,2.0,-19.0
9,39.0,2.0,-11.6
10,31.0,2.0,-19.0
11,31.0,2.0,-11.6
12,31.0,10.0,-11.6
13,39.0,10.0,-11.6
14,36.15,6.0,-11.6
15,36.15,6.0,-12.4
16,32.8,3.8,-12.4
17,32.8,8.2,-12.4
18,37.2,3.8,-12.4
19,37.2,8.2,-12.4
20,32.8,8.2,-14.2
** ... 3229 like lines cut
*ELEMENT,TYPE=C3D4,ELSET=BOSS
1,1057,955,1040,2810
2,2078,2356,1736,2534
3,1411,2510,2509,3155
4,1830,2433,2370,2770
5,1310,1559,1647,2630
6,828,1093,1172,2734
7,1281,2495,21,2772
8,1501,1500,2275,2907
9,986,1092,1139,2703
10,1352,1536,1525,2301
11,1395,1377,2725,2832
12,2306,2487,2686,2743
13,922,1167,1156,3200
14,1664,1663,1607,2934
15,2208,2412,2378,2906
16,314,2318,315,2637
17,1529,1398,1426,3105
18,2340,2208,2743,2858
19,2574,2609,2294,2947
20,2215,2245,2275,2323
** ... 12953 like lines cut
*SURFACE,NAME=BOSS_CONTACT,TYPE=ELEMENT
11119,S1
8250,S1
8018,S1
10410,S3
6484,S1
355,S1
7124,S1
11358,S1
8970,S1
5394,S1
6047,S1
4558,S1
3921,S1
8641,S1
10527,S1
7128,S1
12704,S2
7039,S1
10963,S1
9386,S1
** ... 326 like lines cut
*NODE,NSET=SPACER
3250,37.925,6.0,-19.0
3251,36.225,6.0,-19.0
3252,32.1,6.0,-19.85
3253,37.9,6.0,-19.85
3254,35.0,8.9,-19.85
3255,36.9,6.0,-19.85
3256,36.225,6.0,-19.85
3257,37.975,6.0,-19.8
3258,37.975,6.0,-19.05
3259,37.925,6.0,-19.85
3260,36.175,6.0,-19.8
3261,36.175,6.0,-19.05
3262,37.86879694517945,6.570639191897176,-19.0
3263,37.70234763259551,7.119349039667889,-19.0
3264,37.43204861598494,7.625042931582339,-19.0
3265,37.06828733497065,8.068287334970654,-19.0
3266,36.62504293158234,8.432048615984947,-19.0
3267,36.11934903966788,8.702347632595515,-19.0
3268,35.57063919189716,8.86879694517945,-19.0
3269,34.99999999999999,8.925,-19.0
** ... 794 like lines cut
*ELEMENT,TYPE=C3D4,ELSET=SPACER
12974,3814,4001,3794,4049
12975,3795,3856,3808,4014
12976,3590,4014,3795,4015
12977,3936,3882,3624,4009
12978,3331,3992,3984,4055
12979,3598,3992,3984,4020
12980,3834,3832,3975,4050
12981,3923,3886,3298,3516
12982,3299,3889,3923,3517
12983,3916,3314,3532,3905
12984,3898,3301,3519,3933
12985,3531,3905,3313,3915
12986,3936,3549,3903,4009
12987,3565,4026,3841,4027
12988,3940,3961,3306,3524
12989,3915,3312,3530,3888
12990,3933,3300,3518,3889
12991,3879,3318,3906,3536
12992,3795,3840,3640,4015
12993,3642,3992,3598,4020
** ... 2562 like lines cut
*SURFACE,NAME=SPACER_CONTACT,TYPE=ELEMENT
15417,S4
14792,S2
14831,S1
14461,S3
14546,S3
15267,S4
14948,S3
14089,S1
14953,S2
13774,S3
14946,S1
13965,S1
14967,S3
14747,S1
14937,S1
13789,S2
15029,S3
14923,S1
14936,S2
15041,S1
** ... 326 like lines cut
*MATERIAL,NAME=BOSS
*ELASTIC
1120,.35
*SOLID SECTION,ELSET=BOSS,MATERIAL=BOSS
*MATERIAL,NAME=SPACER
*ELASTIC
193000,.3
*SOLID SECTION,ELSET=SPACER,MATERIAL=SPACER
*NSET,NSET=ANCHORS
10,8,3252,3253,3254
*SURFACE INTERACTION,NAME=NORMAL
*SURFACE BEHAVIOR,PRESSURE-OVERCLOSURE=LINEAR
1000000
*CONTACT PAIR,INTERACTION=NORMAL,TYPE=SURFACE TO SURFACE
BOSS_CONTACT,SPACER_CONTACT
*EQUATION
6496
2791,1,1,1,1,0.09333307525091976,1,2,0.1617490000352712,2,1,0.01447732945100378
2,2,0.01690404287094446,3,1,0.01530866522485389,3,2,0.004344090258171151,4,1,0.08137627778537153
4,2,0.004643014729132379,5,1,0.01779036636016329,5,2,0.07573775495426659,6,1,0.03963601416046926
6,2,0.03392799823123382,7,1,0.004737585277072146,7,2,0.005413530404843378,8,1,0.04340698303867212
8,2,0.03894022640463713,9,1,0.05614198383056281,9,2,0.05036474336905381,10,1,0.04561683779338779
10,2,-0.01116116699083857,11,1,0.04077512496885436,11,2,-0.009976535000320913,12,1,-0.006153720577853584
12,2,-0.01062047721188818,13,1,-0.00607438770945824,13,2,0.03843821468382834,14,1,0.002346260475411581
14,2,0.002681018214657342,15,1,0.002613851985394628,15,2,0.002986788916534063,16,1,0.4080547854171666
16,2,0.006713421993652051,17,1,0.05118074301494976,17,2,0.005434915757067862,18,1,0.3956157241276417
18,2,0.3408312262782157,19,1,0.05665184330695194,19,2,0.3150218200488849,20,1,0.03324088029084511
20,2,0.003529870287712521,21,1,0.05614264624365688,21,2,0.3121903466796319,22,1,0.3903428323170772
22,2,0.006422020398223835,23,1,0.3726638948556662,23,2,0.321057744995728,24,1,0.001277133546202497
24,2,0.001459351310650271,25,1,-0.005959242470669738,25,2,0.03770958529432106,26,1,-0.006381564753912631
26,2,-0.01101370499158379,27,1,0.03567171990812051,27,2,0.07547845393149566,28,1,0.06074771091676851
28,2,0.1605497703680814,29,1,0.01860316290556436,29,2,0.06352210410832598,30,1,0.02065116699857787
30,2,0.09581742733278932,31,1,0.01321216219996112,31,2,0.08991693361737052,32,1,0.007364518168953981
32,2,0.08239831079693914,33,1,0.003941919096154415,33,2,0.08165988970759917,34,1,0.00113939922253398
34,2,0.03188494649826542,35,1,0.004725829470659541,35,2,0.05878208500947443,36,1,0.005061774211081624
36,2,0.01939872636764916,37,1,0.006585931329435492,37,2,0.007571477273450107,38,1,0.0245821439718177
** ... 1605 like lines cut
*EQUATION
6496
2401,1,1,1,1,0.1015918280951475,1,2,-0.1755020417908117,2,1,0.01575838319812246
2,2,-0.01834134392004429,3,1,0.08276905800808709,3,2,-0.004713455476487404,4,1,0.01792237971666042
4,2,-0.005037796616052378,5,1,0.09618682253622347,5,2,-0.08217751350689925,6,1,0.008729469024283121
6,2,-0.03681279613572974,7,1,0.005156799427860622,7,2,-0.005873826973517456,8,1,-0.006612508485713617
8,2,-0.0422511993293315,9,1,-0.008552525849438759,9,2,-0.05464710937076406,10,1,-0.006949152092221195
10,2,0.01211016819413559,11,1,-0.006211577976344674,11,2,0.01082481042956687,12,1,0.04716219599711009
12,2,0.01152350515349532,13,1,0.04655418784319107,13,2,-0.04170650302836117,14,1,0.002553873749939505
14,2,-0.002908977308348842,15,1,0.002845143598370335,15,2,-0.003240746793708704,16,1,0.06941118464872294
16,2,-0.00728424452103165,17,1,0.3590929449768382,17,2,-0.005897030659345515,18,1,0.06729526783833363
18,2,-0.369811103035254,19,1,0.3974791308816581,19,2,-0.3418071989018849,20,1,0.233223765309063
20,2,-0.003830004776630323,21,1,0.3939065162172181,21,2,-0.3387349736796466,22,1,0.06639833517101629
22,2,-0.006968065904980902,23,1,0.06339110173967025,23,2,-0.3483563407947936,24,1,0.001390143111983998
24,2,-0.001583435660519508,25,1,0.04567171320834643,25,2,-0.04091592042482461,26,1,0.04890839677957148
26,2,0.01195016793478236,27,1,0.05699021173242141,27,2,-0.08189616488078831,28,1,0.1444318563396735
28,2,-0.1742008451520564,29,1,0.06780700329405009,29,2,-0.06892320179678826,30,1,0.1214099980551955
30,2,-0.1039645013717568,31,1,0.1359218066080546,31,2,-0.09756230602956591,32,1,0.1501519828710168
32,2,-0.08940439682361742,33,1,0.1825561402574678,33,2,-0.08860318996080963,34,1,0.08992764957050345
34,2,-0.0345960297226946,35,1,0.2188601964257017,35,2,-0.0637801528147576,36,1,0.1032023300374605
36,2,-0.02104814301739911,37,1,0.06775360996522391,37,2,-0.008215257717657968,38,1,0.1445205518901861
** ... 1605 like lines cut
*EQUATION
3249
2791,2,1,1,2,0.1869637614724039,2,2,0.02900082273039863,3,2,0.09159160888785098
4,2,0.09789418816317558,5,2,0.106439604870725,6,2,0.04768140708643687,7,2,0.009490277281835954
8,2,0.0373126571586132,9,2,0.04825966810473543,10,2,0.0392122490459272,11,2,0.03505031108029328
12,2,0.03731265715860994,13,2,0.03683162782320305,14,2,0.004700002466410288,15,2,0.00523603875483225
16,2,0.4720266320899059,17,2,0.382133728957733,18,2,0.457637465691939,19,2,0.4229829201364116
20,2,0.2481882987839371,21,2,0.4191810727792056,22,2,0.4515379284443345,23,2,0.431087416387953
24,2,0.002558339485318265,25,2,0.0361334526681881,26,2,0.03869417448935659,27,2,0.08819595076866515
28,2,0.1938613094698039,29,2,0.08109653828904753,30,2,0.1325469921372927,31,2,0.138482592546552
32,2,0.1457499912658925,33,2,0.1721922302357828,34,2,0.08401995858883962,35,2,0.2064352657721218
36,2,0.1001767570029412,37,2,0.06903009749883736,38,2,0.1577774875373703,39,2,0.1050798111958169
40,2,0.2027422798643647,41,2,0.1995993064242143,42,2,0.1200826216003164,43,2,0.2040707541231538
44,2,0.1316461013982624,45,2,0.09899349000549444,46,2,0.1444835656663249,47,2,0.1196492648034592
48,2,0.225996774113325,49,2,0.1458506926325477,50,2,0.1453371668426199,51,2,0.1296663960473596
52,2,0.134650749891215,53,2,0.1264267437744428,54,2,0.08461462380102092,55,2,0.1676794039139067
56,2,0.1206617038813767,57,2,0.05656609528803847,58,2,0.002691823800211845,59,2,0.003859522054712553
60,2,0.005350420305068124,61,2,0.003544675850519578,62,2,0.007044149929551304,63,2,0.003049778915444634
64,2,0.006379912534475367,65,2,0.005954720858558727,66,2,0.003118561382935616,67,2,0.003330814763329513
68,2,0.007095603401678846,69,2,0.004934820886973184,70,2,0.004189044699017352,71,2,0.005117890196457783
72,2,0.002816330455812575,73,2,0.002795001274443906,74,2,0.003079916189616884,75,2,0.005724852580808785
** ... 794 like lines cut
*EQUATION
1626
4049,1,1,3250,1,0.05280613600149053,3250,2,0.08976462070813489,3251,1,0.004277278246773928
3251,2,0.003045654359028665,3252,1,0.002508199743476164,3252,2,-0.00422606548585374,3253,1,0.001959974582737962
3253,2,0.003303268584736139,3254,1,-0.00167289367866482,3254,2,5.653477363091144e-07,3255,1,0.06504711323325861
3255,2,0.07183043213709578,3256,1,0.001078817390138671,3256,2,0.0007681765593225,3257,1,0.03142618350512884
3257,2,0.05433411002408331,3258,1,0.03190086512481967,3258,2,0.05515480794136245,3259,1,0.001986988281467936
3259,2,0.003377661441322718,3260,1,0.01588393360252299,3260,2,0.01084873153799368,3261,1,0.00573065716963959
3261,2,0.003914040610181319,3262,1,0.07527571063872858,3262,2,0.187761188791318,3263,1,0.01808239349220685
3263,2,0.0812389280090518,3264,1,0.004594604074868658,3264,2,0.1165502677141037,3265,1,-0.01347469801088671
3265,2,0.08024945966934172,3266,1,-0.02488712563567793,3266,2,0.05688613901497194,3267,1,-0.03871439988422773
3267,2,0.04417133779858452,3268,1,-0.04361924654507374,3268,2,0.02169965721658459,3269,1,-0.05307396704156211
3269,2,1.756372751138799e-05,3270,1,-0.04411539336514673,3270,2,-0.02191585203635191,3271,1,-0.04929490410852121
3271,2,-0.05620317510687984,3272,1,-0.02935871900528543,3272,2,-0.06707425262878755,3273,1,-0.01397395797521069
3273,2,-0.08319077558142184,3274,1,0.004630562261338509,3274,2,-0.1174239276042014,3275,1,0.02268167402920847
3275,2,-0.1018721095837259,3276,1,0.04485577058088715,3276,2,-0.1118532587982467,3277,1,0.06867775343143309
3277,2,-0.1167128209730656,3278,1,0.08985050912799658,3278,2,-0.1124673057046029,3279,1,0.08807973059693229
3279,2,-0.08378987259753494,3280,1,0.1366568165657948,3280,2,-0.09931376536693017,3281,1,0.009246109010238762
3281,2,-0.005045872013163084,3282,1,0.1376598774024933,3282,2,-0.05385246668582713,3283,1,0.1046526155287653
3283,2,-0.02647380703199669,3284,1,0.1306328777693899,3284,2,-0.01623018613043766,3285,1,0.2396112959820488
3285,2,2.055037161013605e-05,3286,1,0.1586648324523051,3286,2,0.01974050206486957,3287,1,0.1414108494823306
** ... 388 like lines cut
*EQUATION
2437
4049,3,1,3250,1,-0.01025807037979031,3250,2,0.0179467192573113,3250,3,0.09882163073800407
3251,1,-0.0008309000546473348,3251,2,0.001461454883427229,3251,3,0.004842558461290857,3252,1,0.0004398471039654973
3252,2,-0.0007487064020524987,3252,3,-0.001659421174148061,3253,1,0.0003437083295720658,3253,2,-0.0005972176118376538
3253,3,0.003646597503381268,3254,1,0.0004357609330533334,3254,2,-0.0007364329481706004,3254,3,-0.003906094489481885
3255,1,0.01140690028829694,3255,2,-0.01975072837850409,3255,3,0.09273654987968434,3256,1,0.00018918537329187
3256,2,-0.0003267903366709457,3256,3,0.001221392665942189,3257,1,0.004827726556156191,3257,2,-0.008386697208851539
3257,3,0.05949437961080999,3258,1,-0.005503427108404492,3258,2,0.009630543129113451,3258,3,0.06039302161331568
3259,1,0.0003484455508339212,3259,2,-0.0006055019988662498,3259,3,0.00371845844252689,3260,1,0.002440108200113035
3260,2,-0.004208361904669775,3260,3,0.01763777951165,3261,1,-0.0009886331888795557,3261,2,0.001741058938249941
3261,3,0.006363415394717118,3262,1,-0.0218084397376523,3262,2,0.03828136403349168,3262,3,0.1592676812868229
3263,1,-0.00998664644351809,3263,2,0.01759251905495482,3263,3,0.04788588630969298,3264,1,-0.01587494543663976
3264,2,0.02806777440819869,3264,3,0.03501998212448038,3265,1,-0.01282092084847735,3265,2,0.02275002050925469
3265,3,-0.004647429351536611,3266,1,-0.01154319613166976,3266,2,0.02055289925588,3266,3,-0.03241577452085453
3267,1,-0.01299139545526653,3267,2,0.02320310911191489,3267,3,-0.06538152886694924,3268,1,-0.01250314543466899
3268,2,0.02239024857535567,3268,3,-0.08684158232640317,3269,1,-0.01449859274981479,3269,2,0.02601809695592476
3269,3,-0.1227892624987423,3270,1,-0.01264536237649334,3270,2,0.02272565942665814,3270,3,-0.1206536766566332
3271,1,-0.01654189642919276,3271,2,0.02975140326505419,3271,3,-0.1673991537771904,3272,1,-0.01361721946574501
3272,2,0.02449271531037483,3272,3,-0.1386545475137637,3273,1,-0.01329595728196529,3273,2,0.02389924792128964
3273,3,-0.1293550199674015,3274,1,-0.01599918557548386,3274,2,0.02871977019816804,3274,3,-0.140482811590297
** ... 591 like lines cut
*EQUATION
2437
4024,3,1,3250,1,0.01925552603586908,3250,2,-0.007637042721605611,3250,3,-0.08637614328499522
3251,1,0.001559690764745352,3251,2,-0.0006331960348505548,3251,3,-0.001061093118413065,3252,1,-0.0008256413778263018
3252,2,0.0003173303189482296,3252,3,0.007823082715931439,3253,1,-0.0006451783272864688,3253,2,0.0002707929654857575
3253,3,-0.003165976675800952,3254,1,-0.0008179711857265092,3254,2,0.0003231345033734649,3254,3,0.004191963474995277
3255,1,-0.02141200609449845,3255,2,0.008856413556753869,3255,3,-0.05197611719590262,3256,1,-0.0003551217476733356
3256,2,0.000145423152974286,3256,3,-0.0002676294696431962,3257,1,-0.009062173581813771,3257,2,0.003823769567838078
3257,3,-0.05268709034767517,3258,1,0.01033053781549085,3258,2,-0.004079685869108624,3258,3,-0.05348291060306665
3259,1,-0.0006540706124793098,3259,2,0.0002746249466145111,3259,3,-0.003250159877269496,3260,1,-0.004580351395344457
3260,2,0.001875271348704527,3260,3,-0.003292161616733615,3261,1,0.001855773201351704,3261,2,-0.0007535821072635035
3261,3,-0.001187756763825181,3262,1,0.04093683934917883,3262,2,-0.01630006932031897,3262,3,-0.1576621642998897
3263,1,0.01874603346288533,3263,2,-0.007504197142461296,3263,3,-0.05594443308144591,3264,1,0.02979901812483631
3264,2,-0.01200706036860901,3264,3,-0.05711178004195312,3265,1,0.02406627816553534,3265,2,-0.009769831847598323
3265,3,-0.01656975388184086,3266,1,0.02166784837901002,3266,2,-0.008867627983011831,3266,3,0.01413210177510963
3267,1,0.02438627774712826,3267,2,-0.01006415156652856,3267,3,0.05005713330260547,3268,1,0.02346977877260848
3268,2,-0.00976697489906291,3268,3,0.08113307680244997,3269,1,0.02721545279388384,3269,2,-0.0114162079189325
3269,3,0.1308632751651563,3270,1,0.02373673560997192,3270,2,-0.01002961423639777,3270,3,0.1436707735563487
3271,1,0.03105095847290161,3271,2,-0.01320315122143672,3271,3,0.2216946628600074,3272,1,0.0255610182276948
3272,2,-0.01092451728020223,3272,3,0.2051602878064778,3273,1,0.02495797378414157,3273,2,-0.01070678163309472
3273,3,0.2165829401613316,3274,1,0.0300322305263544,3274,2,-0.01291256522166745,3274,3,0.2723937587577839
** ... 591 like lines cut
*EQUATION
2437
4062,3,1,3250,1,-0.008784497178727136,3250,2,-0.01183218900467129,3250,3,0.115954362504081
3251,1,-0.0007115411491262293,3251,2,-0.0009517432686856029,3251,3,0.006684519412492364,3252,1,0.0003766630078370737
3252,2,0.0004949489347452632,3252,3,6.70029295689456e-05,3253,1,0.0002943345814217885,3253,2,0.0003763545867193978
3253,3,0.00428556393504529,3254,1,0.0003731638159305317,3254,2,0.0004753433224321461,3254,3,0.006168119407161608
3255,1,0.009768297515094112,3255,2,0.0125499320681104,3255,3,0.1180056497239732,3256,1,0.0001620088687647357
3256,2,0.0002088097073802101,3256,3,0.001685973034921299,3257,1,0.004134222981719006,3257,2,0.005263162677607506
3257,3,0.06959232061129245,3258,1,-0.004712859058011057,3258,2,-0.006368682074792727,3258,3,0.07064348851592905
3259,1,0.0002983913002070057,3259,2,0.0003814962638757548,3259,3,0.00436312854767845,3260,1,0.002089586326285282
3260,2,0.002686379927681622,3260,3,0.02452762435674717,3261,1,-0.000846615897237195,3261,2,-0.00113461955069779
3261,3,0.00884915600200529,3262,1,-0.0186756544120887,3262,2,-0.02522846588545778,3262,3,0.2763932436155222
3263,1,-0.008552063327705821,3263,2,-0.01157999646961285,3263,3,0.1376394952335439,3264,1,-0.01359450737200536
3264,2,-0.01843906202819309,3264,3,0.2315199710557219,3265,1,-0.01097919383006177,3265,2,-0.01490627036247824
3265,3,0.192882857943832,3266,1,-0.009885014442084545,3266,2,-0.01342351385459789,3266,3,0.1747957671956969
3267,1,-0.01112517973646913,3267,2,-0.01509899612840973,3267,3,0.1932207596938267,3268,1,-0.0107070668975377
3268,2,-0.0145122021827935,3268,3,0.17809789074644,3269,1,-0.01241586793527782,3269,2,-0.01679393228602429
3269,3,0.1925540015359145,3270,1,-0.01082885435638419,3270,2,-0.01460813532807437,3270,3,0.1520145659828744
3271,1,-0.01416565076403879,3271,2,-0.01904825871680995,3271,3,0.1739662250642259,3272,1,-0.01166110404297991
3272,2,-0.01562388649912167,3272,3,0.1202122724456862,3273,1,-0.01138599121546367,3273,2,-0.01519627136185986
3273,3,0.09338361935556433,3274,1,-0.01370090039805739,3274,2,-0.01821314159859554,3274,3,0.08280539178947718
** ... 591 like lines cut
*EQUATION
1626
4062,1,1,3250,1,0.07654899982622242,3250,2,-0.09906596524496072,3251,1,0.006200441777443448
3251,2,-0.003361242842664333,3252,1,0.003635944537242197,3252,2,0.004663967309634875,3253,1,0.002841224625660429
3253,2,-0.00364555086657415,3254,1,0.008080520618680169,3254,2,-6.239286564649894e-07,3255,1,0.09429380440652645
3255,2,-0.07927344913271783,3256,1,0.00156387871682033,3256,2,-0.0008477744542058736,3257,1,0.04555612468227251
3257,2,-0.0599641708815677,3258,1,0.04624423417057513,3258,2,-0.06086990891854042,3259,1,0.002880384310044986
3259,2,-0.003727652256709156,3260,1,0.02302571865028981,3260,2,-0.01197286918851086,3261,1,0.008307293581762904
3261,2,-0.00431961064388977,3262,1,0.2044667309404358,3262,2,-0.2072168662488153,3263,1,0.112117278200678
3263,2,-0.08965684648576971,3264,1,0.2054652026886536,3264,2,-0.1286271214602247,3265,1,0.1853236276243855
3265,2,-0.08856485015826977,3266,1,0.1812429246476243,3266,2,-0.06278063925542217,3267,1,0.2160571519820866
3267,2,-0.04874833960927585,3268,1,0.2151113321317824,3268,2,-0.02394815987286755,3269,1,0.2522546853471955
3269,2,-1.938366814774988e-05,3270,1,0.2175581145008585,3270,2,0.02418675664219883,3271,1,0.2751047832529169
3271,2,0.06202690712522579,3272,1,0.2138077403682799,3272,2,0.07402443777220798,3273,1,0.1921901761467704
3273,2,0.0918109430802017,3274,1,0.2070732098097827,3274,2,0.1295913093510168,3275,1,0.1406344551834764
3275,2,0.1124280232884405,3276,1,0.1218389397677669,3276,2,0.1234434119058057,3277,1,0.09955686466700739
3277,2,0.1288065183693381,3278,1,0.07312250817566014,3278,2,0.1241210859048041,3279,1,0.03905421744451559
3279,2,0.09247211809223226,3280,1,0.02864165172590211,3280,2,0.1096045853095759,3281,1,0.0005175569187316603
3281,2,0.005568721591459176,3282,1,-0.006276423326861835,3282,2,0.05943262001184036,3283,1,-0.01153772021753388
3283,2,0.0292170036105985,3284,1,-0.01910806308488325,3284,2,0.01791194618139204,3285,1,-0.03782366487881123
3285,2,-2.267978612999664e-05,3286,1,-0.02320838122546094,3286,2,-0.02178599849304792,3287,1,-0.01559023449922668
** ... 388 like lines cut
*EQUATION
814
4049,2,1,3250,2,0.1221679185066831,3251,2,0.009895557975829481,3252,2,0.005802763941122872
3253,2,0.004534435450689725,3254,2,0.00564894350998545,3255,2,0.1504876332620024,3256,2,0.002495862886054257
3257,2,0.07270502475928708,3258,2,0.07380320898222233,3259,2,0.004596932114806834,3260,2,0.03674775798524286
3261,2,0.01325797551387792,3262,2,0.2605449754656223,3263,2,0.119672933973255,3264,2,0.1907685937237024
3265,2,0.1544488174045632,3266,2,0.1393388256968322,3267,2,0.157057056548822,3268,2,0.1512951934554318
3269,2,0.1754964213461162,3270,2,0.1530160995936819,3271,2,0.1999801770218057,3272,2,0.164374524002694
3273,2,0.1601714028758717,3274,2,0.1922615825762261,3275,2,0.1501119019265953,3276,2,0.1552552017951428
3277,2,0.158887182811415,3278,2,0.1561075147038799,3279,2,0.123467131378739,3280,2,0.162609291740016
3281,2,0.009715072295358337,3282,2,0.1319727500631864,3283,2,0.09419817664450697,3284,2,0.1133188786472856
3285,2,0.2053389106755239,3286,2,0.1376354957593053,3287,2,0.1272843885619375,3288,2,0.009511716432005279
3289,2,0.1285594179184441,3290,2,0.1389399106924793,3291,2,0.187724267451703,3292,2,0.1150783616758342
3293,2,0.01193812376809969,3294,2,0.01782727763861893,3295,2,0.002810615346909369,3296,2,0.001976661912797259
3297,2,0.003229590146135406,3298,2,0.01235896715752573,3299,2,0.01570414422545331,3300,2,0.02788217260628903
3301,2,0.01632468251506673,3302,2,0.01666999304131697,3303,2,0.01874630827637811,3304,2,0.03174964575157285
3305,2,0.01396384141276796,3306,2,0.01482408753879358,3307,2,0.002600340975298587,3308,2,0.002580987312548802
3309,2,0.002594486069347324,3310,2,0.002588194693610539,3311,2,0.009395616934288116,3312,2,0.01520193326082953
3313,2,0.01562858584365313,3314,2,0.03067957346958054,3315,2,0.01666999304131728,3316,2,0.01649474800859263
3317,2,0.01592179900367705,3318,2,0.01576838057813412,3319,2,0.03018989001874667,3320,2,0.00968159032748757
3321,2,0.003229590146135455,3322,2,0.002031617888017151,3323,2,0.01430305539864076,3324,2,0.177670150895821
** ... 185 like lines cut
*STEP,NLGEOM,INC=100
*STATIC
.1,1,1e-6,.1
*CLOAD
3,3,-0.184019430073633
4,3,-0.121660663442619
5,3,-0.118317493072296
6,3,-0.118317493072298
7,3,-0.0477410149275089
89,3,-0.254308505736954
90,3,-0.215013613745876
91,3,-0.208285502006569
92,3,-0.216669933165088
93,3,-0.22531192940768
94,3,-0.233367953008005
95,3,-0.217692065964628
96,3,-0.207333718093785
97,3,-0.255734633669644
98,3,-0.256621365019301
99,3,-0.231955371940859
100,3,-0.209358675601297
101,3,-0.233685658818705
102,3,-0.266638643288806
103,3,-0.196395676626973
** ... 241 like lines cut
*NODE PRINT,NSET=BOSS
U
*NODE PRINT,NSET=SPACER
U
*CONTACT PRINT,SLAVE=BOSS_CONTACT,MASTER=SPACER_CONTACT
CF,CDIS,CSTR
*EL PRINT,ELSET=BOSS
S
*EL PRINT,ELSET=SPACER
S
*END STEP
